../datasets/input/HSP90_3/poses/HSP90_26/ligand.pdb
 OpenBabel02211915403D

 29 32  0  0  0  0  0  0  0  0999 V2000
   -3.5880   10.3550   25.0360 O   0  0  0  0  0  0  0  0  0  0  0  0
   -2.2890   10.2840   24.6170 C   0  0  0  0  0  0  0  0  0  0  0  0
   -1.9030   11.0020   23.4700 C   0  0  0  0  0  0  0  0  0  0  0  0
   -0.5640   10.9850   23.0310 C   0  0  0  0  0  0  0  0  0  0  0  0
   -0.2220   11.6870   21.9100 O   0  0  0  0  0  0  0  0  0  0  0  0
    0.4120   10.2510   23.7450 C   0  0  0  0  0  0  0  0  0  0  0  0
    0.0160    9.5280   24.8890 C   0  0  0  0  0  0  0  0  0  0  0  0
   -1.3250    9.5290   25.3290 C   0  0  0  0  0  0  0  0  0  0  0  0
   -1.6680    8.7820   26.4890 N   0  0  0  0  0  0  0  0  0  0  0  0
   -2.1170    9.2540   27.6750 C   0  0  0  0  0  0  0  0  0  0  0  0
   -2.2660   10.4330   27.9910 O   0  0  0  0  0  0  0  0  0  0  0  0
   -2.3760    8.1910   28.4600 N   0  0  0  0  0  0  0  0  0  0  0  0
   -2.0840    7.0100   27.7740 C   0  0  0  0  0  0  0  0  0  0  0  0
   -2.1780    5.6690   28.1770 C   0  0  0  0  0  0  0  0  0  0  0  0
   -1.7810    4.6870   27.2390 C   0  0  0  0  0  0  0  0  0  0  0  0
   -1.3050    5.0580   25.9540 C   0  0  0  0  0  0  0  0  0  0  0  0
   -1.2200    6.4190   25.5770 C   0  0  0  0  0  0  0  0  0  0  0  0
   -1.6320    7.3750   26.5220 C   0  0  0  0  0  0  0  0  0  0  0  0
    1.8210   10.2200   23.3180 C   0  0  0  0  0  0  0  0  0  0  0  0
    2.3840    9.0060   22.8690 C   0  0  0  0  0  0  0  0  0  0  0  0
    3.7280    8.9430   22.4520 C   0  0  0  0  0  0  0  0  0  0  0  0
    4.5270   10.1000   22.4830 C   0  0  0  0  0  0  0  0  0  0  0  0
    6.1730   10.0280   21.9720 Cl  0  0  0  0  0  0  0  0  0  0  0  0
    3.9800   11.3160   22.9330 C   0  0  0  0  0  0  0  0  0  0  0  0
    2.6360   11.3790   23.3510 C   0  0  0  0  0  0  0  0  0  0  0  0
    2.0100   12.8890   23.9140 Cl  0  0  0  0  0  0  0  0  0  0  0  0
   -4.1530   10.8090   24.4290 H   0  0  0  0  0  0  0  0  0  0  0  0
   -0.9440   12.1650   21.5320 H   0  0  0  0  0  0  0  0  0  0  0  0
   -2.7250    8.2190   29.4070 H   0  0  0  0  0  0  0  0  0  0  0  0
  2  1  1  0  0  0  0
  2  8  2  0  0  0  0
  3  2  1  0  0  0  0
  4  3  2  0  0  0  0
  4  6  1  0  0  0  0
  5  4  1  0  0  0  0
  6  7  2  0  0  0  0
  7  8  1  0  0  0  0
  8  9  1  0  0  0  0
  9 18  1  0  0  0  0
  9 10  1  0  0  0  0
 10 11  2  0  0  0  0
 10 12  1  0  0  0  0
 12 29  1  0  0  0  0
 13 14  1  0  0  0  0
 13 12  1  0  0  0  0
 15 14  2  0  0  0  0
 16 15  1  0  0  0  0
 17 16  2  0  0  0  0
 17 18  1  0  0  0  0
 18 13  2  0  0  0  0
 19 25  1  0  0  0  0
 19  6  1  0  0  0  0
 20 19  2  0  0  0  0
 21 22  2  0  0  0  0
 21 20  1  0  0  0  0
 22 24  1  0  0  0  0
 23 22  1  0  0  0  0
 24 25  2  0  0  0  0
 25 26  1  0  0  0  0
 27  1  1  0  0  0  0
 28  5  1  0  0  0  0
M  END
