../datasets/input/ACK1/poses/ACK1_16/ligand.pdb
 OpenBabel02211915413D

 66 70  0  0  1  0  0  0  0  0999 V2000
   49.9100   49.6660   49.2570 C   0  0  0  0  0  0  0  0  0  0  0  0
   50.4600   48.9910   49.9080 H   0  0  0  0  0  0  0  0  0  0  0  0
   50.5980   50.5530   48.4280 C   0  0  0  0  0  0  0  0  0  0  0  0
   51.6830   50.5850   48.4540 H   0  0  0  0  0  0  0  0  0  0  0  0
   48.5220   49.6200   49.2230 C   0  0  0  0  0  0  0  0  0  0  0  0
   47.9830   48.9150   49.8560 H   0  0  0  0  0  0  0  0  0  0  0  0
   47.8170   50.4600   48.3600 C   0  0  0  0  0  0  0  0  0  0  0  0
   46.7290   50.4160   48.3320 H   0  0  0  0  0  0  0  0  0  0  0  0
   48.5050   51.3200   47.5090 C   0  0  0  0  0  0  0  0  0  0  0  0
   47.9530   51.9370   46.8040 H   0  0  0  0  0  0  0  0  0  0  0  0
   49.9050   51.3590   47.5280 C   0  0  0  0  0  0  0  0  0  0  0  0
   50.6230   52.1390   46.5490 C   0  0  1  0  0  0  0  0  0  0  0  0
   51.4470   51.6080   45.5070 C   0  0  0  0  0  0  0  0  0  0  0  0
   51.8650   50.3340   45.1970 C   0  0  0  0  0  0  0  0  0  0  0  0
   51.5450   49.2880   45.9780 N   0  0  0  0  0  0  0  0  0  0  0  0
   50.9870   49.6110   46.7520 H   0  0  0  0  0  0  0  0  0  0  0  0
   51.0430   48.0290   45.4060 C   0  0  0  0  0  0  0  0  0  0  0  0
   49.8100   47.5830   46.2250 C   0  0  1  0  0  0  0  0  0  0  0  0
   49.3020   48.4570   46.6440 H   0  0  0  0  0  0  0  0  0  0  0  0
   48.8330   46.8800   45.4340 O   0  0  0  0  0  0  0  0  0  0  0  0
   47.9300   46.2120   46.3510 C   0  0  0  0  0  0  0  0  0  0  0  0
   48.7630   45.9380   47.6180 C   0  0  0  0  0  0  0  0  0  0  0  0
   50.1250   46.5840   47.3430 C   0  0  0  0  0  0  0  0  0  0  0  0
   50.8270   45.8260   46.9860 H   0  0  0  0  0  0  0  0  0  0  0  0
   50.5380   47.0670   48.2290 H   0  0  0  0  0  0  0  0  0  0  0  0
   48.2840   46.4000   48.4840 H   0  0  0  0  0  0  0  0  0  0  0  0
   48.8650   44.8670   47.8080 H   0  0  0  0  0  0  0  0  0  0  0  0
   47.0940   46.8790   46.5840 H   0  0  0  0  0  0  0  0  0  0  0  0
   47.5630   45.2840   45.9060 H   0  0  0  0  0  0  0  0  0  0  0  0
   51.8200   47.2580   45.4280 H   0  0  0  0  0  0  0  0  0  0  0  0
   50.7450   48.1670   44.3680 H   0  0  0  0  0  0  0  0  0  0  0  0
   52.6110   50.0820   44.1240 N   0  0  0  0  0  0  0  0  0  0  0  0
   52.8910   51.1360   43.3470 C   0  0  0  0  0  0  0  0  0  0  0  0
   53.4920   50.9410   42.4630 H   0  0  0  0  0  0  0  0  0  0  0  0
   52.4750   52.4120   43.5360 N   0  0  0  0  0  0  0  0  0  0  0  0
   51.7470   52.6070   44.6390 C   0  0  0  0  0  0  0  0  0  0  0  0
   51.1470   53.7270   45.0690 N   0  3  0  0  0  0  0  0  0  0  0  0
   51.1110   54.5800   44.5240 H   0  0  0  0  0  0  0  0  0  0  0  0
   50.4650   53.4940   46.2620 C   0  0  0  0  0  0  0  0  0  0  0  0
   49.8710   54.5130   47.1230 C   0  0  0  0  0  0  0  0  0  0  0  0
   49.3390   54.2720   48.4030 C   0  0  0  0  0  0  0  0  0  0  0  0
   48.9020   55.3180   49.2090 C   0  0  0  0  0  0  0  0  0  0  0  0
   48.5040   55.1020   50.1970 H   0  0  0  0  0  0  0  0  0  0  0  0
   49.2950   53.2850   48.8390 H   0  0  0  0  0  0  0  0  0  0  0  0
   49.9310   55.8460   46.6950 C   0  0  0  0  0  0  0  0  0  0  0  0
   50.3400   56.0940   45.7220 H   0  0  0  0  0  0  0  0  0  0  0  0
   49.5170   56.9010   47.5140 C   0  0  0  0  0  0  0  0  0  0  0  0
   49.5940   57.9230   47.1540 H   0  0  0  0  0  0  0  0  0  0  0  0
   49.0240   56.6330   48.7840 C   0  0  0  0  0  0  0  0  0  0  0  0
   48.7070   57.6340   49.6750 O   0  0  0  0  0  0  0  0  0  0  0  0
   49.5690   58.7830   49.8320 C   0  0  0  0  0  0  0  0  0  0  0  0
   49.2910   59.5320   49.0850 H   0  0  0  0  0  0  0  0  0  0  0  0
   50.6120   58.4890   49.6790 H   0  0  0  0  0  0  0  0  0  0  0  0
   49.3740   59.3420   51.2610 C   0  0  0  0  0  0  0  0  0  0  0  0
   48.3000   59.4180   51.4590 H   0  0  0  0  0  0  0  0  0  0  0  0
   49.7990   60.3480   51.3090 H   0  0  0  0  0  0  0  0  0  0  0  0
   49.9980   58.5480   52.4110 N   0  3  0  0  0  0  0  0  0  0  0  0
   49.7360   59.0100   53.3100 H   0  0  0  0  0  0  0  0  0  0  0  0
   49.5080   57.1060   52.4590 C   0  0  0  0  0  0  0  0  0  0  0  0
   49.7800   56.5980   51.5280 H   0  0  0  0  0  0  0  0  0  0  0  0
   48.4200   57.1020   52.5710 H   0  0  0  0  0  0  0  0  0  0  0  0
   49.9780   56.5950   53.3050 H   0  0  0  0  0  0  0  0  0  0  0  0
   51.5130   58.5580   52.3160 C   0  0  0  0  0  0  0  0  0  0  0  0
   51.8340   58.0900   51.3810 H   0  0  0  0  0  0  0  0  0  0  0  0
   51.9290   57.9990   53.1600 H   0  0  0  0  0  0  0  0  0  0  0  0
   51.8750   59.5900   52.3410 H   0  0  0  0  0  0  0  0  0  0  0  0
  1  2  1  0  0  0  0
  1  3  2  0  0  0  0
  1  5  1  0  0  0  0
  3  4  1  0  0  0  0
  3 11  1  0  0  0  0
  5  6  1  0  0  0  0
  5  7  2  0  0  0  0
  7  8  1  0  0  0  0
  7  9  1  0  0  0  0
  9 10  1  0  0  0  0
  9 11  2  0  0  0  0
 12 11  1  6  0  0  0
 12 13  1  0  0  0  0
 12 39  1  0  0  0  0
 13 14  2  0  0  0  0
 13 36  1  0  0  0  0
 14 15  1  0  0  0  0
 14 32  1  0  0  0  0
 15 16  1  0  0  0  0
 15 17  1  0  0  0  0
 17 18  1  0  0  0  0
 17 30  1  0  0  0  0
 17 31  1  0  0  0  0
 18 19  1  1  0  0  0
 18 20  1  0  0  0  0
 18 23  1  0  0  0  0
 20 21  1  0  0  0  0
 21 22  1  0  0  0  0
 21 28  1  0  0  0  0
 21 29  1  0  0  0  0
 22 23  1  0  0  0  0
 22 26  1  0  0  0  0
 22 27  1  0  0  0  0
 23 24  1  0  0  0  0
 23 25  1  0  0  0  0
 32 33  2  0  0  0  0
 33 34  1  0  0  0  0
 33 35  1  0  0  0  0
 35 36  2  0  0  0  0
 36 37  1  0  0  0  0
 37 38  1  0  0  0  0
 37 39  1  0  0  0  0
 39 40  2  0  0  0  0
 40 41  1  0  0  0  0
 40 45  1  0  0  0  0
 41 42  2  0  0  0  0
 41 44  1  0  0  0  0
 42 43  1  0  0  0  0
 42 49  1  0  0  0  0
 45 46  1  0  0  0  0
 45 47  1  0  0  0  0
 47 48  1  0  0  0  0
 47 49  2  0  0  0  0
 49 50  1  0  0  0  0
 50 51  1  0  0  0  0
 51 52  1  0  0  0  0
 51 53  1  0  0  0  0
 51 54  1  0  0  0  0
 54 55  1  0  0  0  0
 54 56  1  0  0  0  0
 54 57  1  0  0  0  0
 57 58  1  0  0  0  0
 57 59  1  0  0  0  0
 57 63  1  0  0  0  0
 59 60  1  0  0  0  0
 59 61  1  0  0  0  0
 59 62  1  0  0  0  0
 63 64  1  0  0  0  0
 63 65  1  0  0  0  0
 63 66  1  0  0  0  0
M  CHG  2  37   1  57   1
M  END
