@<TRIPOS>MOLECULE
complex_16_pose2.pdb
66 70 1 0 0
SMALL
AMBER ff14SB


@<TRIPOS>ATOM
      1 C23        49.9100   49.6660   49.2570 C.ar      1 LIG   -0.1345
      2 H25        50.4600   48.9910   49.9080 H         1 LIG    0.1400
      3 C24        50.5980   50.5530   48.4280 C.ar      1 LIG   -0.1215
      4 H26        51.6830   50.5850   48.4540 H         1 LIG    0.1450
      5 C22        48.5220   49.6200   49.2230 C.ar      1 LIG   -0.1240
      6 H24        47.9830   48.9150   49.8560 H         1 LIG    0.1400
      7 C21        47.8170   50.4600   48.3600 C.ar      1 LIG   -0.1345
      8 H23        46.7290   50.4160   48.3320 H         1 LIG    0.1400
      9 C20        48.5050   51.3200   47.5090 C.ar      1 LIG   -0.1215
     10 H22        47.9530   51.9370   46.8040 H         1 LIG    0.1450
     11 C3         49.9050   51.3590   47.5280 C.ar      1 LIG   -0.0538
     12 C2         50.6230   52.1390   46.5490 C.ar      1 LIG   -0.0172
     13 C1         51.4470   51.6080   45.5070 C.ar      1 LIG   -0.3716
     14 C6         51.8650   50.3340   45.1970 C.ar      1 LIG    0.7482
     15 N2         51.5450   49.2880   45.9780 N.3       1 LIG   -0.8489
     16 H2         50.9870   49.6110   46.7520 H         1 LIG    0.4378
     17 C7         51.0430   48.0290   45.4060 C.3       1 LIG    0.1858
     18 C8         49.8100   47.5830   46.2250 C.3       1 LIG    0.1301
     19 H3         49.3020   48.4570   46.6440 H         1 LIG    0.0597
     20 O1         48.8330   46.8800   45.4340 O.3       1 LIG   -0.4176
     21 C27        47.9300   46.2120   46.3510 C.3       1 LIG    0.1244
     22 C26        48.7630   45.9380   47.6180 C.3       1 LIG   -0.1084
     23 C25        50.1250   46.5840   47.3430 C.3       1 LIG   -0.1034
     24 H27        50.8270   45.8260   46.9860 H         1 LIG    0.0572
     25 H32        50.5380   47.0670   48.2290 H         1 LIG    0.0572
     26 H28        48.2840   46.4000   48.4840 H         1 LIG    0.0567
     27 H29        48.8650   44.8670   47.8080 H         1 LIG    0.0567
     28 H30        47.0940   46.8790   46.5840 H         1 LIG    0.0527
     29 H31        47.5630   45.2840   45.9060 H         1 LIG    0.0527
     30 H4         51.8200   47.2580   45.4280 H         1 LIG    0.0707
     31 H5         50.7450   48.1670   44.3680 H         1 LIG    0.0707
     32 N3         52.6110   50.0820   44.1240 N.ar      1 LIG   -0.7860
     33 C9         52.8910   51.1360   43.3470 C.ar      1 LIG    0.6979
     34 H6         53.4920   50.9410   42.4630 H         1 LIG    0.0581
     35 N4         52.4750   52.4120   43.5360 N.ar      1 LIG   -0.7460
     36 C10        51.7470   52.6070   44.6390 C.ar      1 LIG    0.5168
     37 N1         51.1470   53.7270   45.0690 N.ar      1 LIG   -0.3262
     38 H1         51.1110   54.5800   44.5240 H         1 LIG    0.3117
     39 C4         50.4650   53.4940   46.2620 C.ar      1 LIG   -0.0222
     40 C5         49.8710   54.5130   47.1230 C.ar      1 LIG   -0.0118
     41 C19        49.3390   54.2720   48.4030 C.ar      1 LIG   -0.0915
     42 C18        48.9020   55.3180   49.2090 C.ar      1 LIG   -0.1520
     43 H20        48.5040   55.1020   50.1970 H         1 LIG    0.1410
     44 H21        49.2950   53.2850   48.8390 H         1 LIG    0.1580
     45 C11        49.9310   55.8460   46.6950 C.ar      1 LIG   -0.0915
     46 H7         50.3400   56.0940   45.7220 H         1 LIG    0.1580
     47 C12        49.5170   56.9010   47.5140 C.ar      1 LIG   -0.1520
     48 H8         49.5940   57.9230   47.1540 H         1 LIG    0.1410
     49 C13        49.0240   56.6330   48.7840 C.ar      1 LIG    0.0721
     50 O2         48.7070   57.6340   49.6750 O.3       1 LIG   -0.3749
     51 C14        49.5690   58.7830   49.8320 C.3       1 LIG    0.1144
     52 H9         49.2910   59.5320   49.0850 H         1 LIG    0.0802
     53 H10        50.6120   58.4890   49.6790 H         1 LIG    0.0802
     54 C15        49.3740   59.3420   51.2610 C.3       1 LIG    0.0998
     55 H11        48.3000   59.4180   51.4590 H         1 LIG    0.1092
     56 H12        49.7990   60.3480   51.3090 H         1 LIG    0.1092
     57 N5         49.9980   58.5480   52.4110 N.4       1 LIG   -0.6684
     58 H13        49.7360   59.0100   53.3100 H         1 LIG    0.4448
     59 C17        49.5080   57.1060   52.4590 C.3       1 LIG    0.0796
     60 H17        49.7800   56.5980   51.5280 H         1 LIG    0.1097
     61 H18        48.4200   57.1020   52.5710 H         1 LIG    0.1097
     62 H19        49.9780   56.5950   53.3050 H         1 LIG    0.1097
     63 C16        51.5130   58.5580   52.3160 C.3       1 LIG    0.0796
     64 H14        51.8340   58.0900   51.3810 H         1 LIG    0.1097
     65 H15        51.9290   57.9990   53.1600 H         1 LIG    0.1097
     66 H16        51.8750   59.5900   52.3410 H         1 LIG    0.1097
@<TRIPOS>BOND
     1    1    2 1
     2    1    3 ar
     3    1    5 ar
     4    3    4 1
     5    3   11 ar
     6    5    6 1
     7    5    7 ar
     8    7    8 1
     9    7    9 ar
    10    9   10 1
    11    9   11 ar
    12   11   12 1
    13   12   13 ar
    14   12   39 ar
    15   13   14 ar
    16   13   36 ar
    17   14   15 1
    18   14   32 ar
    19   15   16 1
    20   15   17 1
    21   17   18 1
    22   17   30 1
    23   17   31 1
    24   18   19 1
    25   18   20 1
    26   18   23 1
    27   20   21 1
    28   21   22 1
    29   21   28 1
    30   21   29 1
    31   22   23 1
    32   22   26 1
    33   22   27 1
    34   23   24 1
    35   23   25 1
    36   32   33 ar
    37   33   34 1
    38   33   35 ar
    39   35   36 ar
    40   36   37 ar
    41   37   38 1
    42   37   39 ar
    43   39   40 1
    44   40   41 ar
    45   40   45 ar
    46   41   42 ar
    47   41   44 1
    48   42   43 1
    49   42   49 ar
    50   45   46 1
    51   45   47 ar
    52   47   48 1
    53   47   49 ar
    54   49   50 1
    55   50   51 1
    56   51   52 1
    57   51   53 1
    58   51   54 1
    59   54   55 1
    60   54   56 1
    61   54   57 1
    62   57   58 1
    63   57   59 1
    64   57   63 1
    65   59   60 1
    66   59   61 1
    67   59   62 1
    68   63   64 1
    69   63   65 1
    70   63   66 1
@<TRIPOS>SUBSTRUCTURE
     1 LIG     1 RESIDUE           4 A     LIG     0 ROOT
