../datasets/input/THROMBIN/poses/5J/ligand.pdb
 OpenBabel03111910183D

 58 60  0  0  1  0  0  0  0  0999 V2000
   38.4580   21.0230   39.7760 C   0  0  1  0  0  0  0  0  0  0  0  0
   38.1380   22.4520   39.2750 C   0  0  0  0  0  0  0  0  0  0  0  0
   37.1220   23.0210   39.6620 O   0  0  0  0  0  0  0  0  0  0  0  0
   38.8950   23.0000   38.3210 N   0  0  0  0  0  0  0  0  0  0  0  0
   38.5270   24.2530   37.7020 C   0  0  2  0  0  0  0  0  0  0  0  0
   37.0860   24.4570   37.3060 C   0  0  0  0  0  0  0  0  0  0  0  0
   36.4130   23.5260   36.9270 O   0  0  0  0  0  0  0  0  0  0  0  0
   39.5150   24.4400   36.5880 C   0  0  0  0  0  0  0  0  0  0  0  0
   40.6560   23.4670   36.7880 C   0  0  0  0  0  0  0  0  0  0  0  0
   40.0930   22.4050   37.7710 C   0  0  0  0  0  0  0  0  0  0  0  0
   36.5090   25.6400   37.3510 N   0  0  0  0  0  0  0  0  0  0  0  0
   35.1320   25.8610   36.9870 C   0  0  0  0  0  0  0  0  0  0  0  0
   34.1730   25.7450   38.2060 C   0  0  0  0  0  0  0  0  0  0  0  0
   33.2780   24.6640   38.2490 C   0  0  0  0  0  0  0  0  0  0  0  0
   32.3110   24.5500   39.2600 C   0  0  0  0  0  0  0  0  0  0  0  0
   32.2160   25.5670   40.2310 C   0  0  0  0  0  0  0  0  0  0  0  0
   33.1130   26.6420   40.1640 C   0  0  0  0  0  0  0  0  0  0  0  0
   34.0990   26.6420   39.2190 C   0  0  0  0  0  0  0  0  0  0  0  0
   32.9700   27.9060   41.3870 C   0  0  0  0  0  0  0  0  0  0  0  0
   39.1830   20.9540   41.1480 C   0  0  0  0  0  0  0  0  0  0  0  0
   42.8950   20.7880   42.2950 C   0  0  0  0  0  0  0  0  0  0  0  0
   41.3460   20.5780   42.3490 C   0  0  0  0  0  0  0  0  0  0  0  0
   40.6510   21.2440   41.1410 C   0  0  0  0  0  0  0  0  0  0  0  0
   40.9240   22.7530   41.2490 C   0  0  0  0  0  0  0  0  0  0  0  0
   42.4050   22.9880   41.1650 C   0  0  0  0  0  0  0  0  0  0  0  0
   43.1570   22.2560   42.3050 C   0  0  0  0  0  0  0  0  0  0  0  0
   37.1020   20.2980   39.8720 N   0  0  0  0  0  0  0  0  0  0  0  0
   39.0100   20.5260   38.9770 H   0  0  0  0  0  0  0  0  0  0  0  0
   38.7680   25.0940   38.3570 H   0  0  0  0  0  0  0  0  0  0  0  0
   39.1100   24.2570   35.5900 H   0  0  0  0  0  0  0  0  0  0  0  0
   39.9470   25.4020   36.8710 H   0  0  0  0  0  0  0  0  0  0  0  0
   41.0170   23.0770   35.8340 H   0  0  0  0  0  0  0  0  0  0  0  0
   41.5330   23.9600   37.2120 H   0  0  0  0  0  0  0  0  0  0  0  0
   40.8220   22.1700   38.5510 H   0  0  0  0  0  0  0  0  0  0  0  0
   39.7870   21.4920   37.2520 H   0  0  0  0  0  0  0  0  0  0  0  0
   36.9690   26.4410   37.7560 H   0  0  0  0  0  0  0  0  0  0  0  0
   35.0470   26.8920   36.6330 H   0  0  0  0  0  0  0  0  0  0  0  0
   34.8100   25.2170   36.1650 H   0  0  0  0  0  0  0  0  0  0  0  0
   33.4060   23.8620   37.5260 H   0  0  0  0  0  0  0  0  0  0  0  0
   31.6050   23.7240   39.2420 H   0  0  0  0  0  0  0  0  0  0  0  0
   31.4910   25.4550   41.0330 H   0  0  0  0  0  0  0  0  0  0  0  0
   34.8550   27.4230   39.2390 H   0  0  0  0  0  0  0  0  0  0  0  0
   38.6700   21.5950   41.8690 H   0  0  0  0  0  0  0  0  0  0  0  0
   38.9490   19.9400   41.4790 H   0  0  0  0  0  0  0  0  0  0  0  0
   43.2800   20.4050   41.3480 H   0  0  0  0  0  0  0  0  0  0  0  0
   43.5030   20.3240   43.0750 H   0  0  0  0  0  0  0  0  0  0  0  0
   41.0110   20.8750   43.3450 H   0  0  0  0  0  0  0  0  0  0  0  0
   41.0920   19.5260   42.1990 H   0  0  0  0  0  0  0  0  0  0  0  0
   41.1120   20.9160   40.2070 H   0  0  0  0  0  0  0  0  0  0  0  0
   40.3120   23.2100   40.4690 H   0  0  0  0  0  0  0  0  0  0  0  0
   40.7080   23.2350   42.2050 H   0  0  0  0  0  0  0  0  0  0  0  0
   42.7900   22.6100   40.2160 H   0  0  0  0  0  0  0  0  0  0  0  0
   42.6620   24.0490   41.1900 H   0  0  0  0  0  0  0  0  0  0  0  0
   42.8720   22.7660   43.2270 H   0  0  0  0  0  0  0  0  0  0  0  0
   44.2210   22.4630   42.1720 H   0  0  0  0  0  0  0  0  0  0  0  0
   37.1130   19.4130   40.4040 H   0  0  0  0  0  0  0  0  0  0  0  0
   36.4190   20.9120   40.3440 H   0  0  0  0  0  0  0  0  0  0  0  0
   36.6940   20.4440   38.9340 H   0  0  0  0  0  0  0  0  0  0  0  0
  1 28  1  6  0  0  0
  1  2  1  0  0  0  0
  1 27  1  0  0  0  0
  1 20  1  0  0  0  0
  2  4  1  0  0  0  0
  2  3  2  0  0  0  0
  4  5  1  0  0  0  0
  4 10  1  0  0  0  0
  5  8  1  0  0  0  0
  5  6  1  0  0  0  0
  5 29  1  1  0  0  0
  6  7  2  0  0  0  0
  6 11  1  0  0  0  0
  8 30  1  0  0  0  0
  8  9  1  0  0  0  0
  8 31  1  0  0  0  0
  9 32  1  0  0  0  0
  9 33  1  0  0  0  0
  9 10  1  0  0  0  0
 10 35  1  0  0  0  0
 10 34  1  0  0  0  0
 11 12  1  0  0  0  0
 11 36  1  0  0  0  0
 12 38  1  0  0  0  0
 12 37  1  0  0  0  0
 12 13  1  0  0  0  0
 13 14  2  0  0  0  0
 13 18  1  0  0  0  0
 14 39  1  0  0  0  0
 14 15  1  0  0  0  0
 15 40  1  0  0  0  0
 15 16  2  0  0  0  0
 16 17  1  0  0  0  0
 16 41  1  0  0  0  0
 17 18  2  0  0  0  0
 17 19  1  0  0  0  0
 18 42  1  0  0  0  0
 20 23  1  0  0  0  0
 20 44  1  0  0  0  0
 20 43  1  0  0  0  0
 21 45  1  0  0  0  0
 21 26  1  0  0  0  0
 21 22  1  0  0  0  0
 21 46  1  0  0  0  0
 22 23  1  0  0  0  0
 22 48  1  0  0  0  0
 22 47  1  0  0  0  0
 23 49  1  0  0  0  0
 23 24  1  0  0  0  0
 24 50  1  0  0  0  0
 24 25  1  0  0  0  0
 24 51  1  0  0  0  0
 25 52  1  0  0  0  0
 25 53  1  0  0  0  0
 25 26  1  0  0  0  0
 26 55  1  0  0  0  0
 26 54  1  0  0  0  0
 27 58  1  0  0  0  0
 27 57  1  0  0  0  0
 27 56  1  0  0  0  0
M  END
$$$$
