../datasets/input/THROMBIN/poses/5C/ligand.pdb
 OpenBabel02221916063D

 45 46  0  0  1  0  0  0  0  0999 V2000
   38.1930   21.1500   40.2410 C   0  0  1  0  0  0  0  0  0  0  0  0
   38.0550   22.4750   39.4670 C   0  0  0  0  0  0  0  0  0  0  0  0
   37.0780   23.0990   39.6630 O   0  0  0  0  0  0  0  0  0  0  0  0
   38.8790   21.1310   41.6140 C   0  0  0  0  0  0  0  0  0  0  0  0
   38.8380   22.8900   38.4630 N   0  0  0  0  0  0  0  0  0  0  0  0
   38.6570   24.1380   37.7460 C   0  0  2  0  0  0  0  0  0  0  0  0
   37.2800   24.2480   37.1310 C   0  0  0  0  0  0  0  0  0  0  0  0
   36.6580   23.4060   36.4910 O   0  0  0  0  0  0  0  0  0  0  0  0
   39.6820   24.1370   36.5800 C   0  0  0  0  0  0  0  0  0  0  0  0
   40.7180   23.1380   36.9840 C   0  0  0  0  0  0  0  0  0  0  0  0
   40.0420   22.0800   37.9410 C   0  0  0  0  0  0  0  0  0  0  0  0
   36.6890   25.4470   37.2180 N   0  0  0  0  0  0  0  0  0  0  0  0
   35.2330   25.7330   36.8840 C   0  0  0  0  0  0  0  0  0  0  0  0
   34.3530   25.6800   38.1280 C   0  0  0  0  0  0  0  0  0  0  0  0
   33.3220   24.7140   38.2140 C   0  0  0  0  0  0  0  0  0  0  0  0
   32.4880   24.6570   39.2710 C   0  0  0  0  0  0  0  0  0  0  0  0
   32.5400   25.6300   40.2200 C   0  0  0  0  0  0  0  0  0  0  0  0
   33.4750   26.6500   40.1050 C   0  0  0  0  0  0  0  0  0  0  0  0
   34.4780   26.6290   39.1150 C   0  0  0  0  0  0  0  0  0  0  0  0
   33.3620   27.8970   41.3350 C   0  0  0  0  0  0  0  0  0  0  0  0
   40.3610   21.1930   41.4930 C   0  0  0  0  0  0  0  0  0  0  0  0
   36.8270   20.6330   40.3710 N   0  0  0  0  0  0  0  0  0  0  0  0
   38.5710   21.9560   42.2590 H   0  0  0  0  0  0  0  0  0  0  0  0
   38.5250   20.2400   42.1370 H   0  0  0  0  0  0  0  0  0  0  0  0
   38.8140   25.0440   38.3370 H   0  0  0  0  0  0  0  0  0  0  0  0
   39.2780   23.9330   35.5860 H   0  0  0  0  0  0  0  0  0  0  0  0
   40.0490   25.1600   36.4730 H   0  0  0  0  0  0  0  0  0  0  0  0
   41.1320   22.6130   36.1210 H   0  0  0  0  0  0  0  0  0  0  0  0
   41.5890   23.6180   37.4350 H   0  0  0  0  0  0  0  0  0  0  0  0
   40.7390   21.8230   38.7420 H   0  0  0  0  0  0  0  0  0  0  0  0
   39.6500   21.2780   37.3090 H   0  0  0  0  0  0  0  0  0  0  0  0
   37.1970   26.1530   37.7300 H   0  0  0  0  0  0  0  0  0  0  0  0
   35.1530   26.7680   36.5420 H   0  0  0  0  0  0  0  0  0  0  0  0
   34.8010   25.0960   36.1090 H   0  0  0  0  0  0  0  0  0  0  0  0
   33.3160   23.8970   37.4970 H   0  0  0  0  0  0  0  0  0  0  0  0
   31.8160   23.8070   39.3650 H   0  0  0  0  0  0  0  0  0  0  0  0
   31.8310   25.7340   41.0370 H   0  0  0  0  0  0  0  0  0  0  0  0
   35.1660   27.4700   39.0740 H   0  0  0  0  0  0  0  0  0  0  0  0
   40.6980   21.0720   42.5250 H   0  0  0  0  0  0  0  0  0  0  0  0
   40.7670   20.3910   40.8740 H   0  0  0  0  0  0  0  0  0  0  0  0
   40.7830   22.1150   41.0890 H   0  0  0  0  0  0  0  0  0  0  0  0
   36.5930   19.7080   40.7670 H   0  0  0  0  0  0  0  0  0  0  0  0
   36.2010   21.3110   40.8340 H   0  0  0  0  0  0  0  0  0  0  0  0
   36.3510   20.6130   39.4540 H   0  0  0  0  0  0  0  0  0  0  0  0
   38.6370   20.3790   39.6090 H   0  0  0  0  0  0  0  0  0  0  0  0
  1  2  1  0  0  0  0
  1 45  1  6  0  0  0
  1 22  1  0  0  0  0
  1  4  1  0  0  0  0
  2  5  1  0  0  0  0
  2  3  2  0  0  0  0
  4 21  1  0  0  0  0
  4 24  1  0  0  0  0
  4 23  1  0  0  0  0
  5  6  1  0  0  0  0
  5 11  1  0  0  0  0
  6  9  1  0  0  0  0
  6  7  1  0  0  0  0
  6 25  1  1  0  0  0
  7  8  2  0  0  0  0
  7 12  1  0  0  0  0
  9 26  1  0  0  0  0
  9 27  1  0  0  0  0
  9 10  1  0  0  0  0
 10 28  1  0  0  0  0
 10 29  1  0  0  0  0
 10 11  1  0  0  0  0
 11 31  1  0  0  0  0
 11 30  1  0  0  0  0
 12 13  1  0  0  0  0
 12 32  1  0  0  0  0
 13 34  1  0  0  0  0
 13 33  1  0  0  0  0
 13 14  1  0  0  0  0
 14 15  2  0  0  0  0
 14 19  1  0  0  0  0
 15 35  1  0  0  0  0
 15 16  1  0  0  0  0
 16 36  1  0  0  0  0
 16 17  2  0  0  0  0
 17 18  1  0  0  0  0
 17 37  1  0  0  0  0
 18 19  2  0  0  0  0
 18 20  1  0  0  0  0
 19 38  1  0  0  0  0
 21 40  1  0  0  0  0
 21 41  1  0  0  0  0
 21 39  1  0  0  0  0
 22 44  1  0  0  0  0
 22 42  1  0  0  0  0
 22 43  1  0  0  0  0
M  END
