../datasets/input/FXR_1/poses/FXR46/ligand.pdb
 OpenBabel02211915413D

 56 60  0  0  0  0  0  0  0  0999 V2000
   39.3570   14.2990    1.7810 N   0  0  0  0  0  0  0  0  0  0  0  0
   35.0040   17.8210   -1.4680 N   0  0  0  0  0  0  0  0  0  0  0  0
   41.6870   11.6440    5.3370 N   0  0  0  0  0  0  0  0  0  0  0  0
   42.8400   11.5450    1.3710 N   0  0  0  0  0  0  0  0  0  0  0  0
   42.2350   12.6600    0.8730 N   0  0  0  0  0  0  0  0  0  0  0  0
   40.6930   14.4840    1.8110 C   0  0  0  0  0  0  0  0  0  0  0  0
   38.3930   15.2460    1.3260 C   0  0  0  0  0  0  0  0  0  0  0  0
   37.2600   14.7960    0.6120 C   0  0  0  0  0  0  0  0  0  0  0  0
   36.3420   15.7230    0.0710 C   0  0  0  0  0  0  0  0  0  0  0  0
   36.5390   17.1160    0.2360 C   0  0  0  0  0  0  0  0  0  0  0  0
   37.6380   17.5590    0.9960 C   0  0  0  0  0  0  0  0  0  0  0  0
   38.5370   16.6320    1.5520 C   0  0  0  0  0  0  0  0  0  0  0  0
   35.5740   18.1260   -0.3140 C   0  0  0  0  0  0  0  0  0  0  0  0
   41.5100   13.2650    1.9040 C   0  0  0  0  0  0  0  0  0  0  0  0
   41.7340   12.5950    3.0720 C   0  0  0  0  0  0  0  0  0  0  0  0
   41.3530   12.8270    4.5130 C   0  0  0  0  0  0  0  0  0  0  0  0
   42.9990   11.0140    5.0540 C   0  0  0  0  0  0  0  0  0  0  0  0
   43.1040   10.5080    3.6030 C   0  0  0  0  0  0  0  0  0  0  0  0
   42.5690   11.5360    2.6640 C   0  0  0  0  0  0  0  0  0  0  0  0
   42.4060   12.9710   -0.5180 C   0  0  0  0  0  0  0  0  0  0  0  0
   43.2650   12.1630   -1.3040 C   0  0  0  0  0  0  0  0  0  0  0  0
   43.3940   12.3610   -2.6900 C   0  0  0  0  0  0  0  0  0  0  0  0
   42.6890   13.4010   -3.3180 C   0  0  0  0  0  0  0  0  0  0  0  0
   41.8660   14.2420   -2.5520 C   0  0  0  0  0  0  0  0  0  0  0  0
   41.7280   14.0340   -1.1690 C   0  0  0  0  0  0  0  0  0  0  0  0
   42.3180   12.7360    7.8200 C   0  0  0  0  0  0  0  0  0  0  0  0
   42.0060   13.9130    8.4470 C   0  0  0  0  0  0  0  0  0  0  0  0
   43.1260   14.5040    9.1020 C   0  0  0  0  0  0  0  0  0  0  0  0
   44.2840   13.7900    8.9350 C   0  0  0  0  0  0  0  0  0  0  0  0
   41.2460   15.5730    1.7000 O   0  0  0  0  0  0  0  0  0  0  0  0
   35.3800   19.2060    0.2310 O   0  0  0  0  0  0  0  0  0  0  0  0
   39.8630   12.3150    7.0220 O   0  0  0  0  0  0  0  0  0  0  0  0
   41.3720   10.2900    7.4990 O   0  0  0  0  0  0  0  0  0  0  0  0
   41.1700   11.6560    6.9840 S   0  0  0  0  0  0  0  0  0  0  0  0
   44.0120   12.3540    7.9870 S   0  0  0  0  0  0  0  0  0  0  0  0
   39.0540   13.3390    1.8690 H   0  0  0  0  0  0  0  0  0  0  0  0
   37.0880   13.7400    0.4570 H   0  0  0  0  0  0  0  0  0  0  0  0
   35.4810   15.3480   -0.4580 H   0  0  0  0  0  0  0  0  0  0  0  0
   37.7850   18.6150    1.1790 H   0  0  0  0  0  0  0  0  0  0  0  0
   39.3420   17.0040    2.1580 H   0  0  0  0  0  0  0  0  0  0  0  0
   41.8670   13.6970    4.9250 H   0  0  0  0  0  0  0  0  0  0  0  0
   40.2850   13.0320    4.6060 H   0  0  0  0  0  0  0  0  0  0  0  0
   43.1850   10.1910    5.7450 H   0  0  0  0  0  0  0  0  0  0  0  0
   43.7740   11.7530    5.2370 H   0  0  0  0  0  0  0  0  0  0  0  0
   42.5400    9.5860    3.5000 H   0  0  0  0  0  0  0  0  0  0  0  0
   44.1420   10.2780    3.3660 H   0  0  0  0  0  0  0  0  0  0  0  0
   43.8400   11.3690   -0.8530 H   0  0  0  0  0  0  0  0  0  0  0  0
   44.0490   11.7190   -3.2620 H   0  0  0  0  0  0  0  0  0  0  0  0
   42.7990   13.5740   -4.3770 H   0  0  0  0  0  0  0  0  0  0  0  0
   41.3390   15.0560   -3.0210 H   0  0  0  0  0  0  0  0  0  0  0  0
   41.0730   14.7150   -0.6600 H   0  0  0  0  0  0  0  0  0  0  0  0
   41.0160   14.3390    8.4800 H   0  0  0  0  0  0  0  0  0  0  0  0
   43.0430   15.4130    9.6780 H   0  0  0  0  0  0  0  0  0  0  0  0
   45.2690   14.0070    9.3340 H   0  0  0  0  0  0  0  0  0  0  0  0
   34.4260   18.5180   -1.9120 H   0  0  0  0  0  0  0  0  0  0  0  0
   35.2810   16.9780   -1.9430 H   0  0  0  0  0  0  0  0  0  0  0  0
  1  6  1  0  0  0  0
  1  7  1  0  0  0  0
  1 36  1  0  0  0  0
  2 13  1  0  0  0  0
  2 55  1  0  0  0  0
  2 56  1  0  0  0  0
  3 16  1  0  0  0  0
  3 17  1  0  0  0  0
  3 34  1  0  0  0  0
  4  5  1  0  0  0  0
  4 19  2  0  0  0  0
  5 14  1  0  0  0  0
  5 20  1  0  0  0  0
  6 14  1  0  0  0  0
  6 30  2  0  0  0  0
  7  8  1  0  0  0  0
  7 12  2  0  0  0  0
  8  9  2  0  0  0  0
  8 37  1  0  0  0  0
  9 10  1  0  0  0  0
  9 38  1  0  0  0  0
 10 11  2  0  0  0  0
 10 13  1  0  0  0  0
 11 12  1  0  0  0  0
 11 39  1  0  0  0  0
 12 40  1  0  0  0  0
 13 31  2  0  0  0  0
 14 15  2  0  0  0  0
 15 16  1  0  0  0  0
 15 19  1  0  0  0  0
 16 41  1  0  0  0  0
 16 42  1  0  0  0  0
 17 18  1  0  0  0  0
 17 43  1  0  0  0  0
 17 44  1  0  0  0  0
 18 19  1  0  0  0  0
 18 45  1  0  0  0  0
 18 46  1  0  0  0  0
 20 21  1  0  0  0  0
 20 25  2  0  0  0  0
 21 22  2  0  0  0  0
 21 47  1  0  0  0  0
 22 23  1  0  0  0  0
 22 48  1  0  0  0  0
 23 24  2  0  0  0  0
 23 49  1  0  0  0  0
 24 25  1  0  0  0  0
 24 50  1  0  0  0  0
 25 51  1  0  0  0  0
 26 27  2  0  0  0  0
 26 34  1  0  0  0  0
 26 35  1  0  0  0  0
 27 28  1  0  0  0  0
 27 52  1  0  0  0  0
 28 29  2  0  0  0  0
 28 53  1  0  0  0  0
 29 35  1  0  0  0  0
 29 54  1  0  0  0  0
 32 34  2  0  0  0  0
 33 34  2  0  0  0  0
M  END
