../datasets/input/FXR_2/poses/FXR81/ligand.pdb
 OpenBabel03111910173D

 60 64  0  0  0  0  0  0  0  0999 V2000
   40.7090   14.6200    1.5190 N   0  0  0  0  0  0  0  0  0  0  0  0
   44.6040   11.7730    2.8070 N   0  0  0  0  0  0  0  0  0  0  0  0
   35.7950   18.5910   -0.6810 C   0  0  0  0  0  0  0  0  0  0  0  0
   36.7320   17.7280    0.1080 C   0  0  0  0  0  0  0  0  0  0  0  0
   38.1200   17.9630    0.0770 C   0  0  0  0  0  0  0  0  0  0  0  0
   39.0020   17.1340    0.8000 C   0  0  0  0  0  0  0  0  0  0  0  0
   38.5140   15.9890    1.4620 C   0  0  0  0  0  0  0  0  0  0  0  0
   39.4390   15.0050    2.1600 C   0  0  0  0  0  0  0  0  0  0  0  0
   41.6930   14.0340    2.2270 C   0  0  0  0  0  0  0  0  0  0  0  0
   42.8440   13.5650    1.3070 C   0  0  0  0  0  0  0  0  0  0  0  0
   42.8200   12.0420    1.1320 C   0  0  0  0  0  0  0  0  0  0  0  0
   43.2780   11.3100    2.3850 C   0  0  0  0  0  0  0  0  0  0  0  0
   44.7510   13.2340    2.9940 C   0  0  0  0  0  0  0  0  0  0  0  0
   44.2490   14.0120    1.7590 C   0  0  0  0  0  0  0  0  0  0  0  0
   44.3910   10.3670    5.1480 C   0  0  0  0  0  0  0  0  0  0  0  0
   44.0480   11.5370    5.8530 C   0  0  0  0  0  0  0  0  0  0  0  0
   43.0860   11.5070    6.8700 C   0  0  0  0  0  0  0  0  0  0  0  0
   42.4430   10.3120    7.1900 C   0  0  0  0  0  0  0  0  0  0  0  0
   42.7950    9.1380    6.5200 C   0  0  0  0  0  0  0  0  0  0  0  0
   43.7810    9.1250    5.5070 C   0  0  0  0  0  0  0  0  0  0  0  0
   42.3890   14.1940    0.0240 C   0  0  0  0  0  0  0  0  0  0  0  0
   43.0720   14.1920   -1.2030 C   0  0  0  0  0  0  0  0  0  0  0  0
   42.4060   14.6920   -2.3360 C   0  0  0  0  0  0  0  0  0  0  0  0
   41.0740   15.1430   -2.2280 C   0  0  0  0  0  0  0  0  0  0  0  0
   40.3970   15.1250   -0.9920 C   0  0  0  0  0  0  0  0  0  0  0  0
   41.0960   14.6920    0.1520 C   0  0  0  0  0  0  0  0  0  0  0  0
   37.1270   15.7500    1.4900 C   0  0  0  0  0  0  0  0  0  0  0  0
   36.2460   16.6290    0.8410 C   0  0  0  0  0  0  0  0  0  0  0  0
   34.5770   18.3180   -0.6990 O   0  5  0  0  0  0  0  0  0  0  0  0
   36.2200   19.4710   -1.4540 O   0  0  0  0  0  0  0  0  0  0  0  0
   41.7090   13.8890    3.4530 O   0  0  0  0  0  0  0  0  0  0  0  0
   45.6500    9.4530    2.9160 O   0  0  0  0  0  0  0  0  0  0  0  0
   46.7090   11.3510    4.2300 O   0  0  0  0  0  0  0  0  0  0  0  0
   44.1120    7.7720    4.8900 C   0  0  0  0  0  0  0  0  0  0  0  0
   43.3070   14.7350   -4.0090 Br  0  0  0  0  0  0  0  0  0  0  0  0
   45.5100   10.6470    3.7520 S   0  0  0  0  0  0  0  0  0  0  0  0
   41.9490    7.7260    6.9710 Cl  0  0  0  0  0  0  0  0  0  0  0  0
   38.4900   18.7810   -0.5190 H   0  0  0  0  0  0  0  0  0  0  0  0
   40.0640   17.3240    0.7730 H   0  0  0  0  0  0  0  0  0  0  0  0
   39.6530   15.4360    3.1390 H   0  0  0  0  0  0  0  0  0  0  0  0
   38.8900   14.0850    2.3620 H   0  0  0  0  0  0  0  0  0  0  0  0
   43.4520   11.7480    0.2930 H   0  0  0  0  0  0  0  0  0  0  0  0
   41.8090   11.7150    0.8850 H   0  0  0  0  0  0  0  0  0  0  0  0
   42.5660   11.4370    3.2020 H   0  0  0  0  0  0  0  0  0  0  0  0
   43.3130   10.2450    2.1800 H   0  0  0  0  0  0  0  0  0  0  0  0
   45.7980   13.4800    3.1790 H   0  0  0  0  0  0  0  0  0  0  0  0
   44.1950   13.5580    3.8710 H   0  0  0  0  0  0  0  0  0  0  0  0
   44.2580   15.0850    1.9660 H   0  0  0  0  0  0  0  0  0  0  0  0
   44.9580   13.8550    0.9460 H   0  0  0  0  0  0  0  0  0  0  0  0
   44.5430   12.4640    5.6270 H   0  0  0  0  0  0  0  0  0  0  0  0
   42.8210   12.3860    7.4150 H   0  0  0  0  0  0  0  0  0  0  0  0
   41.6790   10.2900    7.9560 H   0  0  0  0  0  0  0  0  0  0  0  0
   44.0730   13.8040   -1.2810 H   0  0  0  0  0  0  0  0  0  0  0  0
   40.5640   15.5120   -3.0950 H   0  0  0  0  0  0  0  0  0  0  0  0
   39.3630   15.4280   -0.9580 H   0  0  0  0  0  0  0  0  0  0  0  0
   36.7240   14.8840    1.9910 H   0  0  0  0  0  0  0  0  0  0  0  0
   35.1880   16.4310    0.8650 H   0  0  0  0  0  0  0  0  0  0  0  0
   44.2810    7.0400    5.6780 H   0  0  0  0  0  0  0  0  0  0  0  0
   43.2630    7.4180    4.3100 H   0  0  0  0  0  0  0  0  0  0  0  0
   45.0030    7.7370    4.2740 H   0  0  0  0  0  0  0  0  0  0  0  0
  1  8  1  0  0  0  0
  1  9  1  0  0  0  0
  1 26  1  0  0  0  0
  2 12  1  0  0  0  0
  2 13  1  0  0  0  0
  2 36  1  0  0  0  0
  3  4  1  0  0  0  0
  3 29  1  0  0  0  0
  3 30  2  0  0  0  0
  4  5  1  0  0  0  0
  4 28  2  0  0  0  0
  5  6  2  0  0  0  0
  5 38  1  0  0  0  0
  6  7  1  0  0  0  0
  6 39  1  0  0  0  0
  7  8  1  0  0  0  0
  7 27  2  0  0  0  0
  8 40  1  0  0  0  0
  8 41  1  0  0  0  0
  9 10  1  0  0  0  0
  9 31  2  0  0  0  0
 10 11  1  0  0  0  0
 10 14  1  0  0  0  0
 10 21  1  0  0  0  0
 11 12  1  0  0  0  0
 11 42  1  0  0  0  0
 11 43  1  0  0  0  0
 12 44  1  0  0  0  0
 12 45  1  0  0  0  0
 13 14  1  0  0  0  0
 13 46  1  0  0  0  0
 13 47  1  0  0  0  0
 14 48  1  0  0  0  0
 14 49  1  0  0  0  0
 15 16  1  0  0  0  0
 15 20  2  0  0  0  0
 15 36  1  0  0  0  0
 16 17  2  0  0  0  0
 16 50  1  0  0  0  0
 17 18  1  0  0  0  0
 17 51  1  0  0  0  0
 18 19  2  0  0  0  0
 18 52  1  0  0  0  0
 19 20  1  0  0  0  0
 19 37  1  0  0  0  0
 20 34  1  0  0  0  0
 21 22  1  0  0  0  0
 21 26  2  0  0  0  0
 22 23  2  0  0  0  0
 22 53  1  0  0  0  0
 23 24  1  0  0  0  0
 23 35  1  0  0  0  0
 24 25  2  0  0  0  0
 24 54  1  0  0  0  0
 25 26  1  0  0  0  0
 25 55  1  0  0  0  0
 27 28  1  0  0  0  0
 27 56  1  0  0  0  0
 28 57  1  0  0  0  0
 32 36  2  0  0  0  0
 33 36  2  0  0  0  0
 34 58  1  0  0  0  0
 34 59  1  0  0  0  0
 34 60  1  0  0  0  0
M  CHG  1  29  -1
M  END
$$$$
