../datasets/input/THROMBIN/poses/5E/ligand.pdb
 OpenBabel03111910183D

 51 52  0  0  1  0  0  0  0  0999 V2000
   38.3870   20.7920   39.6580 C   0  0  1  0  0  0  0  0  0  0  0  0
   38.1510   22.2070   39.1610 C   0  0  0  0  0  0  0  0  0  0  0  0
   37.1150   22.7700   39.4670 O   0  0  0  0  0  0  0  0  0  0  0  0
   39.0940   20.8410   41.0630 C   0  0  0  0  0  0  0  0  0  0  0  0
   38.8940   22.7490   38.1920 N   0  0  0  0  0  0  0  0  0  0  0  0
   38.5350   24.0650   37.5990 C   0  0  2  0  0  0  0  0  0  0  0  0
   37.1600   24.2050   37.0110 C   0  0  0  0  0  0  0  0  0  0  0  0
   36.6090   23.3330   36.3340 O   0  0  0  0  0  0  0  0  0  0  0  0
   39.5320   24.1690   36.5050 C   0  0  0  0  0  0  0  0  0  0  0  0
   40.7190   23.2310   36.7760 C   0  0  0  0  0  0  0  0  0  0  0  0
   40.1770   22.1930   37.7100 C   0  0  0  0  0  0  0  0  0  0  0  0
   36.4840   25.3710   37.2730 N   0  0  0  0  0  0  0  0  0  0  0  0
   35.0760   25.6250   36.9220 C   0  0  0  0  0  0  0  0  0  0  0  0
   34.2100   25.5820   38.1010 C   0  0  0  0  0  0  0  0  0  0  0  0
   33.2930   24.5390   38.2870 C   0  0  0  0  0  0  0  0  0  0  0  0
   32.4350   24.6020   39.4040 C   0  0  0  0  0  0  0  0  0  0  0  0
   32.4980   25.6590   40.2670 C   0  0  0  0  0  0  0  0  0  0  0  0
   33.3560   26.6790   40.0570 C   0  0  0  0  0  0  0  0  0  0  0  0
   34.2560   26.6330   39.0060 C   0  0  0  0  0  0  0  0  0  0  0  0
   33.3740   28.0320   41.1510 C   0  0  0  0  0  0  0  0  0  0  0  0
   39.3120   19.3430   41.5280 C   0  0  0  0  0  0  0  0  0  0  0  0
   40.4990   21.6260   41.0950 C   0  0  0  0  0  0  0  0  0  0  0  0
   38.1970   21.3740   42.1450 C   0  0  0  0  0  0  0  0  0  0  0  0
   37.0960   20.0160   39.6330 N   0  0  0  0  0  0  0  0  0  0  0  0
   38.7300   24.7870   38.3960 H   0  0  0  0  0  0  0  0  0  0  0  0
   39.0960   24.0500   35.5110 H   0  0  0  0  0  0  0  0  0  0  0  0
   39.9300   25.1820   36.5880 H   0  0  0  0  0  0  0  0  0  0  0  0
   41.1450   22.7990   35.8680 H   0  0  0  0  0  0  0  0  0  0  0  0
   41.5370   23.7850   37.2410 H   0  0  0  0  0  0  0  0  0  0  0  0
   40.8830   22.0100   38.5250 H   0  0  0  0  0  0  0  0  0  0  0  0
   39.8870   21.3660   37.0560 H   0  0  0  0  0  0  0  0  0  0  0  0
   36.9180   26.1180   37.7930 H   0  0  0  0  0  0  0  0  0  0  0  0
   35.0240   26.6510   36.5490 H   0  0  0  0  0  0  0  0  0  0  0  0
   34.7280   25.0720   36.0450 H   0  0  0  0  0  0  0  0  0  0  0  0
   33.2780   23.7160   37.5760 H   0  0  0  0  0  0  0  0  0  0  0  0
   31.6880   23.8170   39.4790 H   0  0  0  0  0  0  0  0  0  0  0  0
   31.7730   25.8410   41.0560 H   0  0  0  0  0  0  0  0  0  0  0  0
   34.9540   27.4490   38.8330 H   0  0  0  0  0  0  0  0  0  0  0  0
   39.7770   18.7880   40.7110 H   0  0  0  0  0  0  0  0  0  0  0  0
   40.9060   21.6890   42.1070 H   0  0  0  0  0  0  0  0  0  0  0  0
   41.2540   21.0200   40.5900 H   0  0  0  0  0  0  0  0  0  0  0  0
   40.4080   22.5970   40.6040 H   0  0  0  0  0  0  0  0  0  0  0  0
   38.7680   21.4370   43.0730 H   0  0  0  0  0  0  0  0  0  0  0  0
   37.7620   22.3450   41.8990 H   0  0  0  0  0  0  0  0  0  0  0  0
   37.3320   20.7860   42.4580 H   0  0  0  0  0  0  0  0  0  0  0  0
   38.4050   18.8190   41.8350 H   0  0  0  0  0  0  0  0  0  0  0  0
   39.9830   19.2340   42.3830 H   0  0  0  0  0  0  0  0  0  0  0  0
   39.1540   20.3280   39.0360 H   0  0  0  0  0  0  0  0  0  0  0  0
   37.1690   19.1710   40.2220 H   0  0  0  0  0  0  0  0  0  0  0  0
   36.3370   20.5730   40.0580 H   0  0  0  0  0  0  0  0  0  0  0  0
   36.8760   19.7980   38.6480 H   0  0  0  0  0  0  0  0  0  0  0  0
  1 48  1  6  0  0  0
  1  2  1  0  0  0  0
  1 24  1  0  0  0  0
  1  4  1  0  0  0  0
  2  5  1  0  0  0  0
  2  3  2  0  0  0  0
  4 22  1  0  0  0  0
  4 21  1  0  0  0  0
  4 23  1  0  0  0  0
  5  6  1  0  0  0  0
  5 11  1  0  0  0  0
  6  9  1  0  0  0  0
  6  7  1  0  0  0  0
  6 25  1  1  0  0  0
  7  8  2  0  0  0  0
  7 12  1  0  0  0  0
  9 26  1  0  0  0  0
  9 27  1  0  0  0  0
  9 10  1  0  0  0  0
 10 28  1  0  0  0  0
 10 29  1  0  0  0  0
 10 11  1  0  0  0  0
 11 31  1  0  0  0  0
 11 30  1  0  0  0  0
 12 13  1  0  0  0  0
 12 32  1  0  0  0  0
 13 34  1  0  0  0  0
 13 33  1  0  0  0  0
 13 14  1  0  0  0  0
 14 15  2  0  0  0  0
 14 19  1  0  0  0  0
 15 35  1  0  0  0  0
 15 16  1  0  0  0  0
 16 36  1  0  0  0  0
 16 17  2  0  0  0  0
 17 18  1  0  0  0  0
 17 37  1  0  0  0  0
 18 19  2  0  0  0  0
 18 20  1  0  0  0  0
 19 38  1  0  0  0  0
 21 39  1  0  0  0  0
 21 46  1  0  0  0  0
 21 47  1  0  0  0  0
 22 41  1  0  0  0  0
 22 42  1  0  0  0  0
 22 40  1  0  0  0  0
 23 44  1  0  0  0  0
 23 45  1  0  0  0  0
 23 43  1  0  0  0  0
 24 51  1  0  0  0  0
 24 50  1  0  0  0  0
 24 49  1  0  0  0  0
M  END
$$$$
