../datasets/input/SCHR_THROMBIN/poses/throm_lig6e/ligand.pdb
 OpenBabel02211915413D

 52 54  0  0  1  0  0  0  0  0999 V2000
   18.2500  -13.2100   21.6960 N   0  0  0  0  0  0  0  0  0  0  0  0
   18.0490  -11.9130   21.0220 C   0  0  2  0  0  0  0  0  0  0  0  0
   17.3790  -13.7550   22.5810 C   0  0  0  0  0  0  0  0  0  0  0  0
   16.3820  -13.1440   22.9690 O   0  0  0  0  0  0  0  0  0  0  0  0
   16.6480  -11.7400   20.3850 C   0  0  0  0  0  0  0  0  0  0  0  0
   16.1900  -12.6290   19.6670 O   0  0  0  0  0  0  0  0  0  0  0  0
   19.1540  -11.8550   19.9570 C   0  0  0  0  0  0  0  0  0  0  0  0
   17.6310  -15.1610   23.1610 C   0  0  2  0  0  0  0  0  0  0  0  0
   15.9830  -10.6080   20.6540 N   0  0  0  0  0  0  0  0  0  0  0  0
   20.2510  -12.7820   20.4430 C   0  0  0  0  0  0  0  0  0  0  0  0
   16.3890  -15.9470   23.0740 N   0  3  0  0  0  0  0  0  0  0  0  0
   18.1160  -15.1070   24.6280 C   0  0  0  0  0  0  0  0  0  0  0  0
   14.6260  -10.2860   20.2180 C   0  0  0  0  0  0  0  0  0  0  0  0
   19.5310  -13.8100   21.3060 C   0  0  0  0  0  0  0  0  0  0  0  0
   19.5410  -14.6110   24.8080 C   0  0  0  0  0  0  0  0  0  0  0  0
   13.5700  -10.3800   21.3110 C   0  0  0  0  0  0  0  0  0  0  0  0
   20.6350  -15.4380   24.4770 C   0  0  0  0  0  0  0  0  0  0  0  0
   12.7540  -11.5270   21.4410 C   0  0  0  0  0  0  0  0  0  0  0  0
   21.9510  -14.9530   24.6070 C   0  0  0  0  0  0  0  0  0  0  0  0
   11.7650  -11.5820   22.4440 C   0  0  0  0  0  0  0  0  0  0  0  0
   22.1800  -13.6410   25.0640 C   0  0  0  0  0  0  0  0  0  0  0  0
   11.5680  -10.4860   23.3080 C   0  0  0  0  0  0  0  0  0  0  0  0
   21.0920  -12.8250   25.4220 C   0  0  0  0  0  0  0  0  0  0  0  0
   12.3760   -9.3400   23.1820 C   0  0  0  0  0  0  0  0  0  0  0  0
   19.7830  -13.3160   25.3030 C   0  0  0  0  0  0  0  0  0  0  0  0
   13.3730   -9.2910   22.1870 C   0  0  0  0  0  0  0  0  0  0  0  0
   12.8930  -12.5680   20.5870 F   0  0  0  0  0  0  0  0  0  0  0  0
   12.1700   -8.0090   24.2630 Cl  0  0  0  0  0  0  0  0  0  0  0  0
   18.2160  -11.1280   21.7590 H   0  0  0  0  0  0  0  0  0  0  0  0
   18.7910  -12.2000   18.9870 H   0  0  0  0  0  0  0  0  0  0  0  0
   19.5320  -10.8470   19.8330 H   0  0  0  0  0  0  0  0  0  0  0  0
   18.3590  -15.7100   22.5660 H   0  0  0  0  0  0  0  0  0  0  0  0
   16.4830   -9.8960   21.1850 H   0  0  0  0  0  0  0  0  0  0  0  0
   20.8180  -13.2350   19.6280 H   0  0  0  0  0  0  0  0  0  0  0  0
   20.9570  -12.2230   21.0590 H   0  0  0  0  0  0  0  0  0  0  0  0
   16.5310  -16.8680   23.4600 H   0  0  0  0  0  0  0  0  0  0  0  0
   15.6640  -15.4630   23.5920 H   0  0  0  0  0  0  0  0  0  0  0  0
   16.1050  -16.0190   22.1080 H   0  0  0  0  0  0  0  0  0  0  0  0
   17.4380  -14.4940   25.2260 H   0  0  0  0  0  0  0  0  0  0  0  0
   18.0670  -16.1040   25.0680 H   0  0  0  0  0  0  0  0  0  0  0  0
   14.6340   -9.2510   19.8870 H   0  0  0  0  0  0  0  0  0  0  0  0
   14.3280  -10.8830   19.3530 H   0  0  0  0  0  0  0  0  0  0  0  0
   20.1460  -14.0750   22.1640 H   0  0  0  0  0  0  0  0  0  0  0  0
   19.3470  -14.7140   20.7240 H   0  0  0  0  0  0  0  0  0  0  0  0
   20.4720  -16.4430   24.1160 H   0  0  0  0  0  0  0  0  0  0  0  0
   22.7900  -15.5860   24.3540 H   0  0  0  0  0  0  0  0  0  0  0  0
   11.1480  -12.4640   22.5430 H   0  0  0  0  0  0  0  0  0  0  0  0
   23.1890  -13.2680   25.1530 H   0  0  0  0  0  0  0  0  0  0  0  0
   21.2480  -11.8250   25.7980 H   0  0  0  0  0  0  0  0  0  0  0  0
   18.9680  -12.6930   25.6140 H   0  0  0  0  0  0  0  0  0  0  0  0
   13.9930   -8.4120   22.1040 H   0  0  0  0  0  0  0  0  0  0  0  0
   10.8010  -10.5310   24.0690 H   0  0  0  0  0  0  0  0  0  0  0  0
  1  2  1  0  0  0  0
  1  3  1  0  0  0  0
  1 14  1  0  0  0  0
  2  5  1  0  0  0  0
  2  7  1  0  0  0  0
  2 29  1  1  0  0  0
  3  4  2  0  0  0  0
  3  8  1  0  0  0  0
  5  6  2  0  0  0  0
  5  9  1  0  0  0  0
  7 10  1  0  0  0  0
  7 30  1  0  0  0  0
  7 31  1  0  0  0  0
  8 11  1  0  0  0  0
  8 12  1  0  0  0  0
  8 32  1  6  0  0  0
  9 13  1  0  0  0  0
  9 33  1  0  0  0  0
 10 14  1  0  0  0  0
 10 34  1  0  0  0  0
 10 35  1  0  0  0  0
 11 36  1  0  0  0  0
 11 37  1  0  0  0  0
 11 38  1  0  0  0  0
 12 15  1  0  0  0  0
 12 39  1  0  0  0  0
 12 40  1  0  0  0  0
 13 16  1  0  0  0  0
 13 41  1  0  0  0  0
 13 42  1  0  0  0  0
 14 43  1  0  0  0  0
 14 44  1  0  0  0  0
 15 17  2  0  0  0  0
 15 25  1  0  0  0  0
 16 18  2  0  0  0  0
 16 26  1  0  0  0  0
 17 19  1  0  0  0  0
 17 45  1  0  0  0  0
 18 20  1  0  0  0  0
 18 27  1  0  0  0  0
 19 21  2  0  0  0  0
 19 46  1  0  0  0  0
 20 22  2  0  0  0  0
 20 47  1  0  0  0  0
 21 23  1  0  0  0  0
 21 48  1  0  0  0  0
 22 24  1  0  0  0  0
 22 52  1  0  0  0  0
 23 25  2  0  0  0  0
 23 49  1  0  0  0  0
 24 26  2  0  0  0  0
 24 28  1  0  0  0  0
 25 50  1  0  0  0  0
 26 51  1  0  0  0  0
M  CHG  1  11   1
M  END
