@<TRIPOS>MOLECULE
6e
 52 54 0 0 0
SMALL
GASTEIGER
****

@<TRIPOS>ATOM
      1 N          18.2497  -13.2104   21.6962 N.am    1  UNL1       -0.2853
      2 C          18.0488  -11.9126   21.0217 C.3     1  UNL1        0.1024
      3 C          17.3792  -13.7553   22.5811 C.2     1  UNL1        0.2646
      4 O          16.3817  -13.1440   22.9691 O.2     1  UNL1       -0.2694
      5 C          16.6479  -11.7402   20.3852 C.2     1  UNL1        0.2338
      6 O          16.1896  -12.6294   19.6672 O.2     1  UNL1       -0.2738
      7 C          19.1544  -11.8553   19.9573 C.3     1  UNL1       -0.0243
      8 C          17.6313  -15.1609   23.1609 C.3     1  UNL1        0.0574
      9 N          15.9835  -10.6080   20.6535 N.am    1  UNL1       -0.3096
     10 C          20.2512  -12.7816   20.4429 C.3     1  UNL1       -0.0350
     11 N          16.3889  -15.9469   23.0741 N.4     1  UNL1        0.2276
     12 C          18.1164  -15.1072   24.6285 C.3     1  UNL1        0.0241
     13 C          14.6257  -10.2861   20.2180 C.3     1  UNL1        0.0396
     14 C          19.5309  -13.8096   21.3059 C.3     1  UNL1        0.0157
     15 C          19.5409  -14.6106   24.8076 C.ar    1  UNL1       -0.0415
     16 C          13.5701  -10.3803   21.3113 C.ar    1  UNL1        0.0062
     17 C          20.6348  -15.4379   24.4770 C.ar    1  UNL1       -0.0584
     18 C          12.7537  -11.5266   21.4406 C.ar    1  UNL1        0.1281
     19 C          21.9515  -14.9527   24.6066 C.ar    1  UNL1       -0.0615
     20 C          11.7654  -11.5815   22.4439 C.ar    1  UNL1       -0.0248
     21 C          22.1796  -13.6411   25.0642 C.ar    1  UNL1       -0.0617
     22 C          11.5676  -10.4862   23.3077 C.ar    1  UNL1       -0.0407
     23 C          21.0922  -12.8253   25.4224 C.ar    1  UNL1       -0.0615
     24 C          12.3755   -9.3399   23.1820 C.ar    1  UNL1        0.0415
     25 C          19.7830  -13.3164   25.3030 C.ar    1  UNL1       -0.0584
     26 C          13.3727   -9.2906   22.1874 C.ar    1  UNL1       -0.0360
     27 F          12.8930  -12.5678   20.5872 F       1  UNL1       -0.2051
     28 CL         12.1698   -8.0089   24.2632 Cl      1  UNL1       -0.0835
     29 H          18.2159  -11.1277   21.7585 H       1  UNL1        0.0597
     30 H          18.7909  -12.1998   18.9874 H       1  UNL1        0.0288
     31 H          19.5318  -10.8473   19.8328 H       1  UNL1        0.0288
     32 H          18.3588  -15.7104   22.5659 H       1  UNL1        0.0952
     33 H          16.4831   -9.8962   21.1854 H       1  UNL1        0.1491
     34 H          20.8176  -13.2352   19.6279 H       1  UNL1        0.0281
     35 H          20.9566  -12.2225   21.0594 H       1  UNL1        0.0281
     36 H          16.5312  -16.8677   23.4605 H       1  UNL1        0.2002
     37 H          15.6642  -15.4635   23.5916 H       1  UNL1        0.2002
     38 H          16.1051  -16.0186   22.1081 H       1  UNL1        0.2002
     39 H          17.4379  -14.4943   25.2258 H       1  UNL1        0.0373
     40 H          18.0667  -16.1041   25.0680 H       1  UNL1        0.0373
     41 H          14.6345   -9.2506   19.8866 H       1  UNL1        0.0512
     42 H          14.3280  -10.8826   19.3533 H       1  UNL1        0.0512
     43 H          20.1464  -14.0746   22.1639 H       1  UNL1        0.0465
     44 H          19.3469  -14.7139   20.7244 H       1  UNL1        0.0465
     45 H          20.4719  -16.4432   24.1160 H       1  UNL1        0.0620
     46 H          22.7897  -15.5863   24.3539 H       1  UNL1        0.0618
     47 H          11.1484  -12.4637   22.5428 H       1  UNL1        0.0647
     48 H          23.1887  -13.2680   25.1534 H       1  UNL1        0.0618
     49 H          21.2485  -11.8254   25.7984 H       1  UNL1        0.0618
     50 H          18.9680  -12.6934   25.6145 H       1  UNL1        0.0620
     51 H          13.9932   -8.4120   22.1036 H       1  UNL1        0.0636
     52 H          10.8009  -10.5310   24.0689 H       1  UNL1        0.0633
@<TRIPOS>BOND
     1     1     2    1
     2     1     3   am
     3     1    14    1
     4     2     5    1
     5     2     7    1
     6     3     4    2
     7     3     8    1
     8     5     6    2
     9     5     9   am
    10     7    10    1
    11     8    11    1
    12     8    12    1
    13     9    13    1
    14    10    14    1
    15    12    15    1
    16    13    16    1
    17    15    17   ar
    18    15    25   ar
    19    16    18   ar
    20    16    26   ar
    21    17    19   ar
    22    18    20   ar
    23    18    27    1
    24    19    21   ar
    25    20    22   ar
    26    21    23   ar
    27    22    24   ar
    28    23    25   ar
    29    24    26   ar
    30    24    28    1
    31     2    29    1
    32     7    30    1
    33     7    31    1
    34     8    32    1
    35     9    33    1
    36    10    34    1
    37    10    35    1
    38    11    36    1
    39    11    37    1
    40    11    38    1
    41    12    39    1
    42    12    40    1
    43    13    41    1
    44    13    42    1
    45    14    43    1
    46    14    44    1
    47    17    45    1
    48    19    46    1
    49    20    47    1
    50    21    48    1
    51    22    52    1
    52    23    49    1
    53    25    50    1
    54    26    51    1
