../datasets/input/FXR_1/poses/FXR102/ligand.pdb
 OpenBabel03111910173D

 67 72  0  0  0  0  0  0  0  0999 V2000
   39.5670   14.1340    1.6800 N   0  0  0  0  0  0  0  0  0  0  0  0
   35.9980   18.7050   -1.2390 N   0  0  0  0  0  0  0  0  0  0  0  0
   41.6430   11.4790    5.2350 N   0  0  0  0  0  0  0  0  0  0  0  0
   42.8880   11.1510    1.3060 N   0  0  0  0  0  0  0  0  0  0  0  0
   42.3840   12.2910    0.7600 N   0  0  0  0  0  0  0  0  0  0  0  0
   40.9130   14.2080    1.6360 C   0  0  0  0  0  0  0  0  0  0  0  0
   38.7010   15.2150    1.3660 C   0  0  0  0  0  0  0  0  0  0  0  0
   37.5840   15.0400    0.5200 C   0  0  0  0  0  0  0  0  0  0  0  0
   36.8470   16.1680    0.0780 C   0  0  0  0  0  0  0  0  0  0  0  0
   37.2310   17.4770    0.4640 C   0  0  0  0  0  0  0  0  0  0  0  0
   38.2860   17.6150    1.3830 C   0  0  0  0  0  0  0  0  0  0  0  0
   38.9650   16.4950    1.8780 C   0  0  0  0  0  0  0  0  0  0  0  0
   36.5420   18.7310   -0.0150 C   0  0  0  0  0  0  0  0  0  0  0  0
   36.4560   19.7070   -2.2050 C   0  0  0  0  0  0  0  0  0  0  0  0
   36.0990   19.3080   -3.6480 C   0  0  0  0  0  0  0  0  0  0  0  0
   33.9980   18.7940   -2.7010 C   0  0  0  0  0  0  0  0  0  0  0  0
   34.5860   18.3360   -1.3610 C   0  0  0  0  0  0  0  0  0  0  0  0
   41.6340   12.9390    1.7410 C   0  0  0  0  0  0  0  0  0  0  0  0
   41.7610   12.2780    2.9220 C   0  0  0  0  0  0  0  0  0  0  0  0
   41.3600   12.6070    4.3250 C   0  0  0  0  0  0  0  0  0  0  0  0
   42.8990   10.7280    4.9880 C   0  0  0  0  0  0  0  0  0  0  0  0
   42.9740   10.1430    3.5640 C   0  0  0  0  0  0  0  0  0  0  0  0
   42.5400   11.1650    2.5740 C   0  0  0  0  0  0  0  0  0  0  0  0
   42.6780   12.6050   -0.6080 C   0  0  0  0  0  0  0  0  0  0  0  0
   43.6350   11.8320   -1.3080 C   0  0  0  0  0  0  0  0  0  0  0  0
   43.8940   12.0450   -2.6740 C   0  0  0  0  0  0  0  0  0  0  0  0
   43.2010   13.0530   -3.3660 C   0  0  0  0  0  0  0  0  0  0  0  0
   42.2830   13.8650   -2.6800 C   0  0  0  0  0  0  0  0  0  0  0  0
   42.0330   13.6510   -1.3110 C   0  0  0  0  0  0  0  0  0  0  0  0
   42.3740   12.7350    7.6110 C   0  0  0  0  0  0  0  0  0  0  0  0
   42.1160   13.9330    8.2120 C   0  0  0  0  0  0  0  0  0  0  0  0
   43.2630   14.5020    8.8330 C   0  0  0  0  0  0  0  0  0  0  0  0
   44.3980   13.7670    8.6490 C   0  0  0  0  0  0  0  0  0  0  0  0
   41.5460   15.2430    1.4860 O   0  0  0  0  0  0  0  0  0  0  0  0
   36.6810   19.7860    0.6040 O   0  0  0  0  0  0  0  0  0  0  0  0
   34.9320   18.4950   -3.7230 O   0  0  0  0  0  0  0  0  0  0  0  0
   39.8890   12.3990    6.8810 O   0  0  0  0  0  0  0  0  0  0  0  0
   41.2870   10.3510    7.5190 O   0  0  0  0  0  0  0  0  0  0  0  0
   41.1580   11.6650    6.8740 S   0  0  0  0  0  0  0  0  0  0  0  0
   44.0610   12.3110    7.7340 S   0  0  0  0  0  0  0  0  0  0  0  0
   39.1720   13.2130    1.7620 H   0  0  0  0  0  0  0  0  0  0  0  0
   37.2950   14.0500    0.1950 H   0  0  0  0  0  0  0  0  0  0  0  0
   36.0040   16.0220   -0.5770 H   0  0  0  0  0  0  0  0  0  0  0  0
   38.5770   18.5980    1.7130 H   0  0  0  0  0  0  0  0  0  0  0  0
   39.7180   16.6200    2.6370 H   0  0  0  0  0  0  0  0  0  0  0  0
   37.5340   19.8320   -2.1180 H   0  0  0  0  0  0  0  0  0  0  0  0
   35.9990   20.6690   -1.9650 H   0  0  0  0  0  0  0  0  0  0  0  0
   36.9320   18.7750   -4.1000 H   0  0  0  0  0  0  0  0  0  0  0  0
   35.9480   20.2040   -4.2490 H   0  0  0  0  0  0  0  0  0  0  0  0
   33.8140   19.8720   -2.6800 H   0  0  0  0  0  0  0  0  0  0  0  0
   33.0600   18.2740   -2.8960 H   0  0  0  0  0  0  0  0  0  0  0  0
   34.0150   18.7810   -0.5440 H   0  0  0  0  0  0  0  0  0  0  0  0
   34.4710   17.2600   -1.2760 H   0  0  0  0  0  0  0  0  0  0  0  0
   41.8980   13.4900    4.6770 H   0  0  0  0  0  0  0  0  0  0  0  0
   40.2940   12.8400    4.3680 H   0  0  0  0  0  0  0  0  0  0  0  0
   43.0000    9.9260    5.7180 H   0  0  0  0  0  0  0  0  0  0  0  0
   43.7460   11.3900    5.1480 H   0  0  0  0  0  0  0  0  0  0  0  0
   42.3300    9.2690    3.4970 H   0  0  0  0  0  0  0  0  0  0  0  0
   43.9970    9.8350    3.3500 H   0  0  0  0  0  0  0  0  0  0  0  0
   44.1740   11.0500   -0.7960 H   0  0  0  0  0  0  0  0  0  0  0  0
   44.6180   11.4280   -3.1870 H   0  0  0  0  0  0  0  0  0  0  0  0
   43.4000   13.2220   -4.4150 H   0  0  0  0  0  0  0  0  0  0  0  0
   41.7710   14.6550   -3.2050 H   0  0  0  0  0  0  0  0  0  0  0  0
   41.3150   14.2890   -0.8310 H   0  0  0  0  0  0  0  0  0  0  0  0
   41.1360   14.3780    8.2350 H   0  0  0  0  0  0  0  0  0  0  0  0
   43.2340   15.4240    9.3830 H   0  0  0  0  0  0  0  0  0  0  0  0
   45.3800   14.0360    9.0200 H   0  0  0  0  0  0  0  0  0  0  0  0
  1  6  1  0  0  0  0
  1  7  1  0  0  0  0
  1 41  1  0  0  0  0
  2 13  1  0  0  0  0
  2 14  1  0  0  0  0
  2 17  1  0  0  0  0
  3 20  1  0  0  0  0
  3 21  1  0  0  0  0
  3 39  1  0  0  0  0
  4  5  1  0  0  0  0
  4 23  2  0  0  0  0
  5 18  1  0  0  0  0
  5 24  1  0  0  0  0
  6 18  1  0  0  0  0
  6 34  2  0  0  0  0
  7  8  1  0  0  0  0
  7 12  2  0  0  0  0
  8  9  2  0  0  0  0
  8 42  1  0  0  0  0
  9 10  1  0  0  0  0
  9 43  1  0  0  0  0
 10 11  2  0  0  0  0
 10 13  1  0  0  0  0
 11 12  1  0  0  0  0
 11 44  1  0  0  0  0
 12 45  1  0  0  0  0
 13 35  2  0  0  0  0
 14 15  1  0  0  0  0
 14 46  1  0  0  0  0
 14 47  1  0  0  0  0
 15 36  1  0  0  0  0
 15 48  1  0  0  0  0
 15 49  1  0  0  0  0
 16 17  1  0  0  0  0
 16 36  1  0  0  0  0
 16 50  1  0  0  0  0
 16 51  1  0  0  0  0
 17 52  1  0  0  0  0
 17 53  1  0  0  0  0
 18 19  2  0  0  0  0
 19 20  1  0  0  0  0
 19 23  1  0  0  0  0
 20 54  1  0  0  0  0
 20 55  1  0  0  0  0
 21 22  1  0  0  0  0
 21 56  1  0  0  0  0
 21 57  1  0  0  0  0
 22 23  1  0  0  0  0
 22 58  1  0  0  0  0
 22 59  1  0  0  0  0
 24 25  1  0  0  0  0
 24 29  2  0  0  0  0
 25 26  2  0  0  0  0
 25 60  1  0  0  0  0
 26 27  1  0  0  0  0
 26 61  1  0  0  0  0
 27 28  2  0  0  0  0
 27 62  1  0  0  0  0
 28 29  1  0  0  0  0
 28 63  1  0  0  0  0
 29 64  1  0  0  0  0
 30 31  2  0  0  0  0
 30 39  1  0  0  0  0
 30 40  1  0  0  0  0
 31 32  1  0  0  0  0
 31 65  1  0  0  0  0
 32 33  2  0  0  0  0
 32 66  1  0  0  0  0
 33 40  1  0  0  0  0
 33 67  1  0  0  0  0
 37 39  2  0  0  0  0
 38 39  2  0  0  0  0
M  END
$$$$
