@<TRIPOS>MOLECULE
ligand_7.pdb
50 54 1 0 0
SMALL
AMBER ff14SB


@<TRIPOS>ATOM
      1 C19        52.4550   48.0900   48.3720 C.ar      1 LIG   -0.1360
      2 H15        52.9800   47.3960   49.0230 H         1 LIG    0.1340
      3 C20        53.1690   48.9570   47.5500 C.ar      1 LIG   -0.1190
      4 H16        54.2550   48.9580   47.5780 H         1 LIG    0.1435
      5 C18        51.0630   48.0950   48.3430 C.ar      1 LIG   -0.1280
      6 H14        50.5010   47.4110   48.9780 H         1 LIG    0.1330
      7 C17        50.3880   48.9680   47.4920 C.ar      1 LIG   -0.1360
      8 H13        49.3000   48.9720   47.4740 H         1 LIG    0.1340
      9 C16        51.1050   49.8110   46.6450 C.ar      1 LIG   -0.1190
     10 H12        50.5740   50.4600   45.9540 H         1 LIG    0.1435
     11 C3         52.5030   49.7980   46.6570 C.ar      1 LIG   -0.0378
     12 C2         53.2480   50.5690   45.6880 C.ar      1 LIG   -0.0542
     13 C1         54.0600   50.0230   44.6410 C.ar      1 LIG   -0.3546
     14 C6         54.4610   48.7410   44.3270 C.ar      1 LIG    0.7322
     15 N2         54.1310   47.6950   45.1080 N.3       1 LIG   -0.8489
     16 H2         53.5700   48.0240   45.8790 H         1 LIG    0.4338
     17 C7         53.6430   46.4300   44.5390 C.3       1 LIG    0.1868
     18 C8         52.3930   45.9870   45.3370 C.3       1 LIG    0.1291
     19 H3         51.8780   46.8620   45.7430 H         1 LIG    0.0617
     20 O1         51.4340   45.2790   44.5280 O.3       1 LIG   -0.4186
     21 C23        50.5100   44.6190   45.4310 C.3       1 LIG    0.1254
     22 C22        51.3180   44.3470   46.7140 C.3       1 LIG   -0.1074
     23 C21        52.6860   44.9900   46.4630 C.3       1 LIG   -0.1044
     24 H17        53.3930   44.2310   46.1220 H         1 LIG    0.0592
     25 H22        53.0820   45.4750   47.3560 H         1 LIG    0.0592
     26 H18        50.8240   44.8120   47.5700 H         1 LIG    0.0532
     27 H19        51.4150   43.2760   46.9090 H         1 LIG    0.0532
     28 H20        49.6740   45.2920   45.6460 H         1 LIG    0.0482
     29 H21        50.1450   43.6920   44.9820 H         1 LIG    0.0482
     30 H4         54.4200   45.6620   44.5850 H         1 LIG    0.0652
     31 H5         53.3670   46.5560   43.4930 H         1 LIG    0.0652
     32 N3         55.1880   48.4790   43.2450 N.ar      1 LIG   -0.7880
     33 C9         55.4650   49.5290   42.4580 C.ar      1 LIG    0.6809
     34 H6         56.0490   49.3240   41.5660 H         1 LIG    0.0501
     35 N4         55.0590   50.8070   42.6430 N.ar      1 LIG   -0.7400
     36 C10        54.3520   51.0140   43.7610 C.ar      1 LIG    0.4998
     37 N1         53.7560   52.1400   44.1820 N.ar      1 LIG   -0.3242
     38 H1         53.6950   52.9810   43.6240 H         1 LIG    0.3137
     39 C4         53.0840   51.9170   45.3810 C.ar      1 LIG    0.0238
     40 C5         52.4440   52.9400   46.2070 C.ar      1 LIG   -0.0428
     41 C11        52.4010   54.2530   45.7140 C.ar      1 LIG   -0.1130
     42 H7         52.8020   54.4850   44.7350 H         1 LIG    0.1400
     43 C12        51.8530   55.2960   46.4590 C.ar      1 LIG   -0.1295
     44 H8         51.8220   56.3020   46.0480 H         1 LIG    0.1355
     45 C13        51.3410   55.0510   47.7270 C.ar      1 LIG   -0.1220
     46 H9         50.9170   55.8610   48.3170 H         1 LIG    0.1340
     47 C14        51.3940   53.7630   48.2480 C.ar      1 LIG   -0.1295
     48 H10        51.0230   53.5620   49.2520 H         1 LIG    0.1355
     49 C15        51.9450   52.7240   47.5020 C.ar      1 LIG   -0.1130
     50 H11        52.0070   51.7620   47.9900 H         1 LIG    0.1400
@<TRIPOS>BOND
     1    1    2 1
     2    1    3 ar
     3    1    5 ar
     4    3    4 1
     5    3   11 ar
     6    5    6 1
     7    5    7 ar
     8    7    8 1
     9    7    9 ar
    10    9   10 1
    11    9   11 ar
    12   11   12 1
    13   12   13 ar
    14   12   39 ar
    15   13   14 ar
    16   13   36 ar
    17   14   15 1
    18   14   32 ar
    19   15   16 1
    20   15   17 1
    21   17   18 1
    22   17   30 1
    23   17   31 1
    24   18   19 1
    25   18   20 1
    26   18   23 1
    27   20   21 1
    28   21   22 1
    29   21   28 1
    30   21   29 1
    31   22   23 1
    32   22   26 1
    33   22   27 1
    34   23   24 1
    35   23   25 1
    36   32   33 ar
    37   33   34 1
    38   33   35 ar
    39   35   36 ar
    40   36   37 ar
    41   37   38 1
    42   37   39 ar
    43   39   40 1
    44   40   41 ar
    45   40   49 ar
    46   41   42 1
    47   41   43 ar
    48   43   44 1
    49   43   45 ar
    50   45   46 1
    51   45   47 ar
    52   47   48 1
    53   47   49 ar
    54   49   50 1
@<TRIPOS>SUBSTRUCTURE
     1 LIG     1 RESIDUE           4 A     LIG     0 ROOT
