../datasets/input/ACK1/poses/ACK1_7/ligand.pdb
 OpenBabel03111910153D

 50 54  0  0  1  0  0  0  0  0999 V2000
   52.4550   48.0900   48.3720 C   0  0  0  0  0  0  0  0  0  0  0  0
   52.9800   47.3960   49.0230 H   0  0  0  0  0  0  0  0  0  0  0  0
   53.1690   48.9570   47.5500 C   0  0  0  0  0  0  0  0  0  0  0  0
   54.2550   48.9580   47.5780 H   0  0  0  0  0  0  0  0  0  0  0  0
   51.0630   48.0950   48.3430 C   0  0  0  0  0  0  0  0  0  0  0  0
   50.5010   47.4110   48.9780 H   0  0  0  0  0  0  0  0  0  0  0  0
   50.3880   48.9680   47.4920 C   0  0  0  0  0  0  0  0  0  0  0  0
   49.3000   48.9720   47.4740 H   0  0  0  0  0  0  0  0  0  0  0  0
   51.1050   49.8110   46.6450 C   0  0  0  0  0  0  0  0  0  0  0  0
   50.5740   50.4600   45.9540 H   0  0  0  0  0  0  0  0  0  0  0  0
   52.5030   49.7980   46.6570 C   0  0  0  0  0  0  0  0  0  0  0  0
   53.2480   50.5690   45.6880 C   0  0  0  0  0  0  0  0  0  0  0  0
   54.0600   50.0230   44.6410 C   0  0  0  0  0  0  0  0  0  0  0  0
   54.4610   48.7410   44.3270 C   0  0  2  0  0  0  0  0  0  0  0  0
   54.1310   47.6950   45.1080 N   0  0  0  0  0  0  0  0  0  0  0  0
   53.5700   48.0240   45.8790 H   0  0  0  0  0  0  0  0  0  0  0  0
   53.6430   46.4300   44.5390 C   0  0  0  0  0  0  0  0  0  0  0  0
   52.3930   45.9870   45.3370 C   0  0  1  0  0  0  0  0  0  0  0  0
   51.8780   46.8620   45.7430 H   0  0  0  0  0  0  0  0  0  0  0  0
   51.4340   45.2790   44.5280 O   0  0  0  0  0  0  0  0  0  0  0  0
   50.5100   44.6190   45.4310 C   0  0  0  0  0  0  0  0  0  0  0  0
   51.3180   44.3470   46.7140 C   0  0  0  0  0  0  0  0  0  0  0  0
   52.6860   44.9900   46.4630 C   0  0  0  0  0  0  0  0  0  0  0  0
   53.3930   44.2310   46.1220 H   0  0  0  0  0  0  0  0  0  0  0  0
   53.0820   45.4750   47.3560 H   0  0  0  0  0  0  0  0  0  0  0  0
   50.8240   44.8120   47.5700 H   0  0  0  0  0  0  0  0  0  0  0  0
   51.4150   43.2760   46.9090 H   0  0  0  0  0  0  0  0  0  0  0  0
   49.6740   45.2920   45.6460 H   0  0  0  0  0  0  0  0  0  0  0  0
   50.1450   43.6920   44.9820 H   0  0  0  0  0  0  0  0  0  0  0  0
   54.4200   45.6620   44.5850 H   0  0  0  0  0  0  0  0  0  0  0  0
   53.3670   46.5560   43.4930 H   0  0  0  0  0  0  0  0  0  0  0  0
   55.1880   48.4790   43.2450 N   0  0  0  0  0  0  0  0  0  0  0  0
   55.4650   49.5290   42.4580 C   0  0  0  0  0  0  0  0  0  0  0  0
   56.0490   49.3240   41.5660 H   0  0  0  0  0  0  0  0  0  0  0  0
   55.0590   50.8070   42.6430 N   0  0  0  0  0  0  0  0  0  0  0  0
   54.3520   51.0140   43.7610 C   0  0  0  0  0  0  0  0  0  0  0  0
   53.7560   52.1400   44.1820 N   0  0  0  0  0  0  0  0  0  0  0  0
   53.6950   52.9810   43.6240 H   0  0  0  0  0  0  0  0  0  0  0  0
   53.0840   51.9170   45.3810 C   0  0  0  0  0  0  0  0  0  0  0  0
   52.4440   52.9400   46.2070 C   0  0  0  0  0  0  0  0  0  0  0  0
   52.4010   54.2530   45.7140 C   0  0  0  0  0  0  0  0  0  0  0  0
   52.8020   54.4850   44.7350 H   0  0  0  0  0  0  0  0  0  0  0  0
   51.8530   55.2960   46.4590 C   0  0  0  0  0  0  0  0  0  0  0  0
   51.8220   56.3020   46.0480 H   0  0  0  0  0  0  0  0  0  0  0  0
   51.3410   55.0510   47.7270 C   0  0  0  0  0  0  0  0  0  0  0  0
   50.9170   55.8610   48.3170 H   0  0  0  0  0  0  0  0  0  0  0  0
   51.3940   53.7630   48.2480 C   0  0  0  0  0  0  0  0  0  0  0  0
   51.0230   53.5620   49.2520 H   0  0  0  0  0  0  0  0  0  0  0  0
   51.9450   52.7240   47.5020 C   0  0  0  0  0  0  0  0  0  0  0  0
   52.0070   51.7620   47.9900 H   0  0  0  0  0  0  0  0  0  0  0  0
  1  2  1  0  0  0  0
  1  3  2  0  0  0  0
  1  5  1  0  0  0  0
  3  4  1  0  0  0  0
  3 11  1  0  0  0  0
  5  6  1  0  0  0  0
  5  7  2  0  0  0  0
  7  8  1  0  0  0  0
  7  9  1  0  0  0  0
  9 10  1  0  0  0  0
  9 11  2  0  0  0  0
 11 12  1  0  0  0  0
 12 13  1  0  0  0  0
 12 39  2  0  0  0  0
 13 14  1  0  0  0  0
 13 36  2  0  0  0  0
 14 15  1  1  0  0  0
 14 32  1  0  0  0  0
 15 16  1  0  0  0  0
 15 17  1  0  0  0  0
 17 18  1  0  0  0  0
 17 30  1  0  0  0  0
 17 31  1  0  0  0  0
 18 19  1  1  0  0  0
 18 20  1  0  0  0  0
 18 23  1  0  0  0  0
 20 21  1  0  0  0  0
 21 22  1  0  0  0  0
 21 28  1  0  0  0  0
 21 29  1  0  0  0  0
 22 23  1  0  0  0  0
 22 26  1  0  0  0  0
 22 27  1  0  0  0  0
 23 24  1  0  0  0  0
 23 25  1  0  0  0  0
 32 33  2  0  0  0  0
 33 34  1  0  0  0  0
 33 35  1  0  0  0  0
 35 36  1  0  0  0  0
 36 37  1  0  0  0  0
 37 38  1  0  0  0  0
 37 39  1  0  0  0  0
 39 40  1  0  0  0  0
 40 41  2  0  0  0  0
 40 49  1  0  0  0  0
 41 42  1  0  0  0  0
 41 43  1  0  0  0  0
 43 44  1  0  0  0  0
 43 45  2  0  0  0  0
 45 46  1  0  0  0  0
 45 47  1  0  0  0  0
 47 48  1  0  0  0  0
 47 49  2  0  0  0  0
 49 50  1  0  0  0  0
M  END
$$$$
