../datasets/input/HSP90_3/poses/HSP90_11/ligand.pdb
 OpenBabel03111910153D

 28 31  0  0  0  0  0  0  0  0999 V2000
   -3.5980   10.4440   25.0780 O   0  0  0  0  0  0  0  0  0  0  0  0
   -2.3070   10.3380   24.6420 C   0  0  0  0  0  0  0  0  0  0  0  0
   -1.9240   11.0220   23.4730 C   0  0  0  0  0  0  0  0  0  0  0  0
   -0.5940   10.9690   23.0130 C   0  0  0  0  0  0  0  0  0  0  0  0
   -0.2730   11.6340   21.8620 O   0  0  0  0  0  0  0  0  0  0  0  0
    0.3840   10.2310   23.7250 C   0  0  0  0  0  0  0  0  0  0  0  0
   -0.0140    9.5430   24.8920 C   0  0  0  0  0  0  0  0  0  0  0  0
   -1.3470    9.5790   25.3530 C   0  0  0  0  0  0  0  0  0  0  0  0
   -1.6860    8.8640   26.5340 N   0  0  0  0  0  0  0  0  0  0  0  0
   -2.2430    9.3520   27.6670 C   0  0  0  0  0  0  0  0  0  0  0  0
   -2.5160   10.5260   27.9080 O   0  0  0  0  0  0  0  0  0  0  0  0
   -2.4480    8.3100   28.4970 N   0  0  0  0  0  0  0  0  0  0  0  0
   -2.0110    7.1280   27.8930 C   0  0  0  0  0  0  0  0  0  0  0  0
   -2.0060    5.8060   28.3650 C   0  0  0  0  0  0  0  0  0  0  0  0
   -1.4690    4.8190   27.5050 C   0  0  0  0  0  0  0  0  0  0  0  0
   -0.9580    5.1680   26.2270 C   0  0  0  0  0  0  0  0  0  0  0  0
   -0.9750    6.5100   25.7790 C   0  0  0  0  0  0  0  0  0  0  0  0
   -1.5250    7.4710   26.6480 C   0  0  0  0  0  0  0  0  0  0  0  0
    1.7920   10.1550   23.2870 C   0  0  0  0  0  0  0  0  0  0  0  0
    2.3710    8.9100   22.9520 C   0  0  0  0  0  0  0  0  0  0  0  0
    3.7150    8.8250   22.5410 C   0  0  0  0  0  0  0  0  0  0  0  0
    4.5020    9.9890   22.4630 C   0  0  0  0  0  0  0  0  0  0  0  0
    6.1490    9.8870   21.9600 Cl  0  0  0  0  0  0  0  0  0  0  0  0
    3.9410   11.2350   22.7970 C   0  0  0  0  0  0  0  0  0  0  0  0
    2.5960   11.3140   23.2080 C   0  0  0  0  0  0  0  0  0  0  0  0
   -4.1760   10.8430   24.4460 H   0  0  0  0  0  0  0  0  0  0  0  0
   -1.0250   11.9860   21.4110 H   0  0  0  0  0  0  0  0  0  0  0  0
   -2.8500    8.3530   29.4210 H   0  0  0  0  0  0  0  0  0  0  0  0
  2  1  1  0  0  0  0
  2  8  2  0  0  0  0
  3  2  1  0  0  0  0
  4  3  2  0  0  0  0
  4  6  1  0  0  0  0
  5  4  1  0  0  0  0
  6  7  2  0  0  0  0
  7  8  1  0  0  0  0
  8  9  1  0  0  0  0
  9 18  1  0  0  0  0
  9 10  1  0  0  0  0
 10 11  2  0  0  0  0
 10 12  1  0  0  0  0
 12 28  1  0  0  0  0
 13 14  1  0  0  0  0
 13 12  1  0  0  0  0
 15 14  2  0  0  0  0
 16 15  1  0  0  0  0
 17 16  2  0  0  0  0
 17 18  1  0  0  0  0
 18 13  2  0  0  0  0
 19  6  1  0  0  0  0
 20 19  2  0  0  0  0
 21 20  1  0  0  0  0
 22 21  2  0  0  0  0
 22 24  1  0  0  0  0
 23 22  1  0  0  0  0
 24 25  2  0  0  0  0
 25 19  1  0  0  0  0
 26  1  1  0  0  0  0
 27  5  1  0  0  0  0
M  END
$$$$
