../datasets/input/THROMBIN/poses/3I/ligand.pdb
 OpenBabel02221916063D

 52 54  0  0  1  0  0  0  0  0999 V2000
   38.3120   20.9110   39.8150 C   0  0  0  0  0  0  0  0  0  0  0  0
   38.0250   22.2900   39.2290 C   0  0  0  0  0  0  0  0  0  0  0  0
   37.0130   22.8510   39.5490 O   0  0  0  0  0  0  0  0  0  0  0  0
   38.7790   22.7770   38.2080 N   0  0  0  0  0  0  0  0  0  0  0  0
   38.4730   24.0690   37.5710 C   0  0  2  0  0  0  0  0  0  0  0  0
   37.0900   24.2200   37.0270 C   0  0  0  0  0  0  0  0  0  0  0  0
   36.5720   23.4120   36.2050 O   0  0  0  0  0  0  0  0  0  0  0  0
   39.5340   24.1660   36.4640 C   0  0  0  0  0  0  0  0  0  0  0  0
   40.5590   23.1740   36.7670 C   0  0  0  0  0  0  0  0  0  0  0  0
   39.8490   22.1000   37.5060 C   0  0  0  0  0  0  0  0  0  0  0  0
   36.4640   25.3710   37.2700 N   0  0  0  0  0  0  0  0  0  0  0  0
   35.0810   25.6510   36.8860 C   0  0  0  0  0  0  0  0  0  0  0  0
   34.1620   25.5820   38.1370 C   0  0  0  0  0  0  0  0  0  0  0  0
   33.2570   24.5400   38.2680 C   0  0  0  0  0  0  0  0  0  0  0  0
   32.3600   24.5200   39.3420 C   0  0  0  0  0  0  0  0  0  0  0  0
   32.2670   25.5580   40.2460 C   0  0  0  0  0  0  0  0  0  0  0  0
   33.2910   26.5550   40.1540 C   0  0  0  0  0  0  0  0  0  0  0  0
   34.2050   26.5420   39.1100 C   0  0  0  0  0  0  0  0  0  0  0  0
   33.1860   27.9250   41.2330 C   0  0  0  0  0  0  0  0  0  0  0  0
   38.9260   21.0880   41.2490 C   0  0  0  0  0  0  0  0  0  0  0  0
   40.3600   21.6090   41.1360 C   0  0  0  0  0  0  0  0  0  0  0  0
   41.4500   20.5130   41.0780 C   0  0  0  0  0  0  0  0  0  0  0  0
   42.6520   21.1810   41.7950 C   0  0  0  0  0  0  0  0  0  0  0  0
   42.0630   21.9850   42.9530 C   0  0  0  0  0  0  0  0  0  0  0  0
   40.7550   22.5500   42.2660 C   0  0  0  0  0  0  0  0  0  0  0  0
   39.0380   20.3160   39.2570 H   0  0  0  0  0  0  0  0  0  0  0  0
   38.6370   24.8560   38.3110 H   0  0  0  0  0  0  0  0  0  0  0  0
   39.1280   24.0040   35.4630 H   0  0  0  0  0  0  0  0  0  0  0  0
   40.0360   25.1350   36.4130 H   0  0  0  0  0  0  0  0  0  0  0  0
   41.1330   22.7650   35.9340 H   0  0  0  0  0  0  0  0  0  0  0  0
   41.3620   23.6600   37.3250 H   0  0  0  0  0  0  0  0  0  0  0  0
   40.5140   21.5910   38.2080 H   0  0  0  0  0  0  0  0  0  0  0  0
   39.4950   21.4760   36.6810 H   0  0  0  0  0  0  0  0  0  0  0  0
   36.8460   25.9200   38.0250 H   0  0  0  0  0  0  0  0  0  0  0  0
   35.0820   26.6690   36.4880 H   0  0  0  0  0  0  0  0  0  0  0  0
   34.7080   24.9330   36.1510 H   0  0  0  0  0  0  0  0  0  0  0  0
   33.1940   23.7880   37.4850 H   0  0  0  0  0  0  0  0  0  0  0  0
   31.6610   23.6920   39.4330 H   0  0  0  0  0  0  0  0  0  0  0  0
   31.5530   25.5870   41.0640 H   0  0  0  0  0  0  0  0  0  0  0  0
   34.8650   27.3960   38.9760 H   0  0  0  0  0  0  0  0  0  0  0  0
   37.3580   20.4020   39.9690 H   0  0  0  0  0  0  0  0  0  0  0  0
   38.3160   21.7980   41.8130 H   0  0  0  0  0  0  0  0  0  0  0  0
   38.8880   20.1290   41.7700 H   0  0  0  0  0  0  0  0  0  0  0  0
   40.4980   22.2300   40.2490 H   0  0  0  0  0  0  0  0  0  0  0  0
   41.6750   20.2470   40.0430 H   0  0  0  0  0  0  0  0  0  0  0  0
   41.1500   19.6190   41.6290 H   0  0  0  0  0  0  0  0  0  0  0  0
   43.2300   20.3130   42.1180 H   0  0  0  0  0  0  0  0  0  0  0  0
   43.3060   21.8280   41.2070 H   0  0  0  0  0  0  0  0  0  0  0  0
   41.8060   21.2440   43.7120 H   0  0  0  0  0  0  0  0  0  0  0  0
   42.7000   22.6810   43.5030 H   0  0  0  0  0  0  0  0  0  0  0  0
   40.9280   23.5950   42.0000 H   0  0  0  0  0  0  0  0  0  0  0  0
   40.0250   22.4830   43.0760 H   0  0  0  0  0  0  0  0  0  0  0  0
  1  2  1  0  0  0  0
  1 26  1  0  0  0  0
  1 41  1  0  0  0  0
  1 20  1  0  0  0  0
  2  4  1  0  0  0  0
  2  3  2  0  0  0  0
  4 10  1  0  0  0  0
  4  5  1  0  0  0  0
  5  8  1  0  0  0  0
  5  6  1  0  0  0  0
  5 27  1  1  0  0  0
  6  7  2  0  0  0  0
  6 11  1  0  0  0  0
  8 28  1  0  0  0  0
  8 29  1  0  0  0  0
  8  9  1  0  0  0  0
  9 30  1  0  0  0  0
  9 31  1  0  0  0  0
  9 10  1  0  0  0  0
 10 33  1  0  0  0  0
 10 32  1  0  0  0  0
 11 12  1  0  0  0  0
 11 34  1  0  0  0  0
 12 36  1  0  0  0  0
 12 35  1  0  0  0  0
 12 13  1  0  0  0  0
 13 14  2  0  0  0  0
 13 18  1  0  0  0  0
 14 37  1  0  0  0  0
 14 15  1  0  0  0  0
 15 38  1  0  0  0  0
 15 16  2  0  0  0  0
 16 17  1  0  0  0  0
 16 39  1  0  0  0  0
 17 18  2  0  0  0  0
 17 19  1  0  0  0  0
 18 40  1  0  0  0  0
 20 21  1  0  0  0  0
 20 43  1  0  0  0  0
 20 42  1  0  0  0  0
 21 44  1  0  0  0  0
 21 22  1  0  0  0  0
 21 25  1  0  0  0  0
 22 45  1  0  0  0  0
 22 46  1  0  0  0  0
 22 23  1  0  0  0  0
 23 48  1  0  0  0  0
 23 47  1  0  0  0  0
 23 24  1  0  0  0  0
 24 25  1  0  0  0  0
 24 50  1  0  0  0  0
 24 49  1  0  0  0  0
 25 51  1  0  0  0  0
 25 52  1  0  0  0  0
M  END
