../datasets/input/FXR_2/poses/FXR75/ligand.pdb
 OpenBabel03111910173D

 51 55  0  0  0  0  0  0  0  0999 V2000
   40.4830   14.5840    1.5130 N   0  0  0  0  0  0  0  0  0  0  0  0
   44.4020   11.7600    2.8730 N   0  0  0  0  0  0  0  0  0  0  0  0
   36.5360   17.7210    0.0240 N   0  0  0  0  0  0  0  0  0  0  0  0
   37.8690   17.9140    0.0280 C   0  0  0  0  0  0  0  0  0  0  0  0
   38.7720   17.0960    0.7340 C   0  0  0  0  0  0  0  0  0  0  0  0
   38.2810   15.9540    1.3960 C   0  0  0  0  0  0  0  0  0  0  0  0
   39.1810   14.9510    2.1040 C   0  0  0  0  0  0  0  0  0  0  0  0
   41.4440   14.0010    2.2540 C   0  0  0  0  0  0  0  0  0  0  0  0
   42.6690   13.6120    1.3930 C   0  0  0  0  0  0  0  0  0  0  0  0
   42.7050   12.0990    1.1250 C   0  0  0  0  0  0  0  0  0  0  0  0
   43.1210   11.2850    2.3430 C   0  0  0  0  0  0  0  0  0  0  0  0
   44.4730   13.2040    3.1850 C   0  0  0  0  0  0  0  0  0  0  0  0
   44.0250   14.0640    1.9790 C   0  0  0  0  0  0  0  0  0  0  0  0
   42.2710   14.3010    0.1140 C   0  0  0  0  0  0  0  0  0  0  0  0
   43.0250   14.4030   -1.0680 C   0  0  0  0  0  0  0  0  0  0  0  0
   42.3900   14.9000   -2.2220 C   0  0  0  0  0  0  0  0  0  0  0  0
   41.0220   15.2400   -2.1860 C   0  0  0  0  0  0  0  0  0  0  0  0
   40.2790   15.1340   -0.9920 C   0  0  0  0  0  0  0  0  0  0  0  0
   40.9450   14.7170    0.1780 C   0  0  0  0  0  0  0  0  0  0  0  0
   36.8880   15.7650    1.4160 C   0  0  0  0  0  0  0  0  0  0  0  0
   36.0690   16.6880    0.7520 C   0  0  0  0  0  0  0  0  0  0  0  0
   41.3980   13.8310    3.4730 O   0  0  0  0  0  0  0  0  0  0  0  0
   45.4800    9.4160    3.0360 O   0  0  0  0  0  0  0  0  0  0  0  0
   46.4210   11.3330    4.4270 O   0  0  0  0  0  0  0  0  0  0  0  0
   43.3740   15.0990   -3.8360 Br  0  0  0  0  0  0  0  0  0  0  0  0
   45.2750   10.6250    3.8430 S   0  0  0  0  0  0  0  0  0  0  0  0
   44.1270   10.2060    5.1510 C   0  0  0  0  0  0  0  0  0  0  0  0
   43.7110    8.5520    5.5010 S   0  0  0  0  0  0  0  0  0  0  0  0
   42.6040    9.0470    6.7610 C   0  0  0  0  0  0  0  0  0  0  0  0
   42.5360   10.4120    6.8530 C   0  0  0  0  0  0  0  0  0  0  0  0
   43.4050   11.0730    5.9310 C   0  0  0  0  0  0  0  0  0  0  0  0
   38.2250   18.7430   -0.5640 H   0  0  0  0  0  0  0  0  0  0  0  0
   39.8340   17.2900    0.7010 H   0  0  0  0  0  0  0  0  0  0  0  0
   39.3510   15.3530    3.1050 H   0  0  0  0  0  0  0  0  0  0  0  0
   38.6230   14.0280    2.2560 H   0  0  0  0  0  0  0  0  0  0  0  0
   43.3880   11.8820    0.3030 H   0  0  0  0  0  0  0  0  0  0  0  0
   41.7210   11.7590    0.8010 H   0  0  0  0  0  0  0  0  0  0  0  0
   42.3640   11.3260    3.1280 H   0  0  0  0  0  0  0  0  0  0  0  0
   43.2170   10.2400    2.0580 H   0  0  0  0  0  0  0  0  0  0  0  0
   45.4980   13.4700    3.4530 H   0  0  0  0  0  0  0  0  0  0  0  0
   43.8650   13.4150    4.0630 H   0  0  0  0  0  0  0  0  0  0  0  0
   43.9840   15.1150    2.2710 H   0  0  0  0  0  0  0  0  0  0  0  0
   44.7920   13.9930    1.2070 H   0  0  0  0  0  0  0  0  0  0  0  0
   44.0570   14.0910   -1.0970 H   0  0  0  0  0  0  0  0  0  0  0  0
   40.5390   15.5910   -3.0790 H   0  0  0  0  0  0  0  0  0  0  0  0
   39.2250   15.3550   -1.0040 H   0  0  0  0  0  0  0  0  0  0  0  0
   36.4480   14.9200    1.9260 H   0  0  0  0  0  0  0  0  0  0  0  0
   35.0030   16.5550    0.7560 H   0  0  0  0  0  0  0  0  0  0  0  0
   42.0850    8.3040    7.3500 H   0  0  0  0  0  0  0  0  0  0  0  0
   41.9150   10.9540    7.5480 H   0  0  0  0  0  0  0  0  0  0  0  0
   43.4830   12.1480    5.8720 H   0  0  0  0  0  0  0  0  0  0  0  0
  1  7  1  0  0  0  0
  1  8  1  0  0  0  0
  1 19  1  0  0  0  0
  2 11  1  0  0  0  0
  2 12  1  0  0  0  0
  2 26  1  0  0  0  0
  3  4  1  0  0  0  0
  3 21  2  0  0  0  0
  4  5  2  0  0  0  0
  4 32  1  0  0  0  0
  5  6  1  0  0  0  0
  5 33  1  0  0  0  0
  6  7  1  0  0  0  0
  6 20  2  0  0  0  0
  7 34  1  0  0  0  0
  7 35  1  0  0  0  0
  8  9  1  0  0  0  0
  8 22  2  0  0  0  0
  9 10  1  0  0  0  0
  9 13  1  0  0  0  0
  9 14  1  0  0  0  0
 10 11  1  0  0  0  0
 10 36  1  0  0  0  0
 10 37  1  0  0  0  0
 11 38  1  0  0  0  0
 11 39  1  0  0  0  0
 12 13  1  0  0  0  0
 12 40  1  0  0  0  0
 12 41  1  0  0  0  0
 13 42  1  0  0  0  0
 13 43  1  0  0  0  0
 14 15  1  0  0  0  0
 14 19  2  0  0  0  0
 15 16  2  0  0  0  0
 15 44  1  0  0  0  0
 16 17  1  0  0  0  0
 16 25  1  0  0  0  0
 17 18  2  0  0  0  0
 17 45  1  0  0  0  0
 18 19  1  0  0  0  0
 18 46  1  0  0  0  0
 20 21  1  0  0  0  0
 20 47  1  0  0  0  0
 21 48  1  0  0  0  0
 23 26  2  0  0  0  0
 24 26  2  0  0  0  0
 26 27  1  0  0  0  0
 27 28  1  0  0  0  0
 27 31  2  0  0  0  0
 28 29  1  0  0  0  0
 29 30  2  0  0  0  0
 29 49  1  0  0  0  0
 30 31  1  0  0  0  0
 30 50  1  0  0  0  0
 31 51  1  0  0  0  0
M  END
$$$$
