../datasets/input/FXR_2/poses/FXR79/ligand.pdb
 OpenBabel02211915413D

 54 58  0  0  0  0  0  0  0  0999 V2000
   40.6260   14.9470    1.4970 N   0  0  0  0  0  0  0  0  0  0  0  0
   44.2950   11.7370    2.8370 N   0  0  0  0  0  0  0  0  0  0  0  0
   35.7730   16.7290    0.7020 C   0  0  0  0  0  0  0  0  0  0  0  0
   36.8310   17.5660    0.3040 C   0  0  0  0  0  0  0  0  0  0  0  0
   38.1300   17.2820    0.7620 C   0  0  0  0  0  0  0  0  0  0  0  0
   38.3870   16.1540    1.5660 C   0  0  0  0  0  0  0  0  0  0  0  0
   39.7710   15.9450    2.1460 C   0  0  0  0  0  0  0  0  0  0  0  0
   41.4310   14.1250    2.2020 C   0  0  0  0  0  0  0  0  0  0  0  0
   42.5710   13.5610    1.3200 C   0  0  0  0  0  0  0  0  0  0  0  0
   42.5090   12.0360    1.1540 C   0  0  0  0  0  0  0  0  0  0  0  0
   42.9690   11.2790    2.3960 C   0  0  0  0  0  0  0  0  0  0  0  0
   44.4130   13.1850    3.0820 C   0  0  0  0  0  0  0  0  0  0  0  0
   43.9690   13.9750    1.8360 C   0  0  0  0  0  0  0  0  0  0  0  0
   42.2210   14.2460    0.0240 C   0  0  0  0  0  0  0  0  0  0  0  0
   42.9050   14.1600   -1.2010 C   0  0  0  0  0  0  0  0  0  0  0  0
   42.3840   14.8510   -2.3110 C   0  0  0  0  0  0  0  0  0  0  0  0
   41.1900   15.5920   -2.1860 C   0  0  0  0  0  0  0  0  0  0  0  0
   40.5210   15.6820   -0.9490 C   0  0  0  0  0  0  0  0  0  0  0  0
   41.0690   15.0080    0.1600 C   0  0  0  0  0  0  0  0  0  0  0  0
   37.3360   15.2680    1.8790 C   0  0  0  0  0  0  0  0  0  0  0  0
   36.0240   15.5680    1.4580 C   0  0  0  0  0  0  0  0  0  0  0  0
   41.3940   13.9570    3.4230 O   0  0  0  0  0  0  0  0  0  0  0  0
   45.4070    9.4140    3.0090 O   0  0  0  0  0  0  0  0  0  0  0  0
   46.3530   11.3610    4.3580 O   0  0  0  0  0  0  0  0  0  0  0  0
   43.3050   14.7970   -3.9700 Br  0  0  0  0  0  0  0  0  0  0  0  0
   45.2030   10.6320    3.8020 S   0  0  0  0  0  0  0  0  0  0  0  0
   36.5860   18.7180   -0.6270 C   0  0  0  0  0  0  0  0  0  0  0  0
   44.0880   10.2230    5.1390 C   0  0  0  0  0  0  0  0  0  0  0  0
   43.6960    8.5680    5.5190 S   0  0  0  0  0  0  0  0  0  0  0  0
   42.5940    9.0680    6.7770 C   0  0  0  0  0  0  0  0  0  0  0  0
   42.5110   10.4350    6.8500 C   0  0  0  0  0  0  0  0  0  0  0  0
   43.3640   11.0930    5.9110 C   0  0  0  0  0  0  0  0  0  0  0  0
   37.5340   19.4490   -0.9640 O   0  5  0  0  0  0  0  0  0  0  0  0
   35.4410   18.8780   -1.1250 O   0  0  0  0  0  0  0  0  0  0  0  0
   38.9340   17.9210    0.4480 H   0  0  0  0  0  0  0  0  0  0  0  0
   40.3070   16.8940    2.1380 H   0  0  0  0  0  0  0  0  0  0  0  0
   39.6280   15.7020    3.2030 H   0  0  0  0  0  0  0  0  0  0  0  0
   43.1220   11.7290    0.3070 H   0  0  0  0  0  0  0  0  0  0  0  0
   41.4910   11.7350    0.9200 H   0  0  0  0  0  0  0  0  0  0  0  0
   42.2520   11.3980    3.2090 H   0  0  0  0  0  0  0  0  0  0  0  0
   43.0120   10.2150    2.1790 H   0  0  0  0  0  0  0  0  0  0  0  0
   45.4490   13.4370    3.3120 H   0  0  0  0  0  0  0  0  0  0  0  0
   43.8310   13.4580    3.9610 H   0  0  0  0  0  0  0  0  0  0  0  0
   43.9890   15.0440    2.0540 H   0  0  0  0  0  0  0  0  0  0  0  0
   44.7050   13.8180    1.0470 H   0  0  0  0  0  0  0  0  0  0  0  0
   43.8060   13.5810   -1.2890 H   0  0  0  0  0  0  0  0  0  0  0  0
   40.7910   16.1110   -3.0400 H   0  0  0  0  0  0  0  0  0  0  0  0
   39.6070   16.2440   -0.8970 H   0  0  0  0  0  0  0  0  0  0  0  0
   37.5440   14.3680    2.4490 H   0  0  0  0  0  0  0  0  0  0  0  0
   35.2010   14.9210    1.7060 H   0  0  0  0  0  0  0  0  0  0  0  0
   42.0880    8.3300    7.3840 H   0  0  0  0  0  0  0  0  0  0  0  0
   41.8840   10.9830    7.5390 H   0  0  0  0  0  0  0  0  0  0  0  0
   43.4240   12.1650    5.8250 H   0  0  0  0  0  0  0  0  0  0  0  0
   34.7700   16.9800    0.3880 H   0  0  0  0  0  0  0  0  0  0  0  0
  1  7  1  0  0  0  0
  1  8  1  0  0  0  0
  1 19  1  0  0  0  0
  2 11  1  0  0  0  0
  2 12  1  0  0  0  0
  2 26  1  0  0  0  0
  3  4  1  0  0  0  0
  3 21  2  0  0  0  0
  3 54  1  0  0  0  0
  4  5  2  0  0  0  0
  4 27  1  0  0  0  0
  5  6  1  0  0  0  0
  5 35  1  0  0  0  0
  6  7  1  0  0  0  0
  6 20  2  0  0  0  0
  7 36  1  0  0  0  0
  7 37  1  0  0  0  0
  8  9  1  0  0  0  0
  8 22  2  0  0  0  0
  9 10  1  0  0  0  0
  9 13  1  0  0  0  0
  9 14  1  0  0  0  0
 10 11  1  0  0  0  0
 10 38  1  0  0  0  0
 10 39  1  0  0  0  0
 11 40  1  0  0  0  0
 11 41  1  0  0  0  0
 12 13  1  0  0  0  0
 12 42  1  0  0  0  0
 12 43  1  0  0  0  0
 13 44  1  0  0  0  0
 13 45  1  0  0  0  0
 14 15  1  0  0  0  0
 14 19  2  0  0  0  0
 15 16  2  0  0  0  0
 15 46  1  0  0  0  0
 16 17  1  0  0  0  0
 16 25  1  0  0  0  0
 17 18  2  0  0  0  0
 17 47  1  0  0  0  0
 18 19  1  0  0  0  0
 18 48  1  0  0  0  0
 20 21  1  0  0  0  0
 20 49  1  0  0  0  0
 21 50  1  0  0  0  0
 23 26  2  0  0  0  0
 24 26  2  0  0  0  0
 26 28  1  0  0  0  0
 27 33  1  0  0  0  0
 27 34  2  0  0  0  0
 28 29  1  0  0  0  0
 28 32  2  0  0  0  0
 29 30  1  0  0  0  0
 30 31  2  0  0  0  0
 30 51  1  0  0  0  0
 31 32  1  0  0  0  0
 31 52  1  0  0  0  0
 32 53  1  0  0  0  0
M  CHG  1  33  -1
M  END
