../datasets/input/SCHR_THROMBIN/poses/throm_lig3a/ligand.pdb
 OpenBabel02211915413D

 55 57  0  0  1  0  0  0  0  0999 V2000
   18.3590  -13.2430   21.6780 N   0  0  0  0  0  0  0  0  0  0  0  0
   18.1950  -11.9530   20.9800 C   0  0  2  0  0  0  0  0  0  0  0  0
   17.4600  -13.7620   22.5530 C   0  0  0  0  0  0  0  0  0  0  0  0
   16.4630  -13.1350   22.9150 O   0  0  0  0  0  0  0  0  0  0  0  0
   16.8180  -11.7790   20.3050 C   0  0  0  0  0  0  0  0  0  0  0  0
   16.3850  -12.6580   19.5560 O   0  0  0  0  0  0  0  0  0  0  0  0
   19.3210  -11.9260   19.9340 C   0  0  0  0  0  0  0  0  0  0  0  0
   17.6740  -15.1650   23.1540 C   0  0  2  0  0  0  0  0  0  0  0  0
   16.1460  -10.6550   20.5740 N   0  0  0  0  0  0  0  0  0  0  0  0
   20.3940  -12.8540   20.4650 C   0  0  0  0  0  0  0  0  0  0  0  0
   16.4160  -15.9250   23.0600 N   0  3  0  0  0  0  0  0  0  0  0  0
   18.1380  -15.1030   24.6290 C   0  0  0  0  0  0  0  0  0  0  0  0
   14.8060  -10.3300   20.1080 C   0  0  0  0  0  0  0  0  0  0  0  0
   19.6400  -13.8630   21.3220 C   0  0  0  0  0  0  0  0  0  0  0  0
   19.5620  -14.6140   24.8240 C   0  0  0  0  0  0  0  0  0  0  0  0
   13.7050  -10.8480   21.0150 C   0  0  0  0  0  0  0  0  0  0  0  0
   19.8030  -13.3130   25.3020 C   0  0  0  0  0  0  0  0  0  0  0  0
   13.2760  -12.1870   20.9050 C   0  0  0  0  0  0  0  0  0  0  0  0
   21.1120  -12.8210   25.4160 C   0  0  0  0  0  0  0  0  0  0  0  0
   12.2470  -12.6710   21.7350 C   0  0  0  0  0  0  0  0  0  0  0  0
   22.2000  -13.6410   25.0690 C   0  0  0  0  0  0  0  0  0  0  0  0
   11.6480  -11.8210   22.6820 C   0  0  0  0  0  0  0  0  0  0  0  0
   21.9720  -14.9600   24.6330 C   0  0  0  0  0  0  0  0  0  0  0  0
   12.0810  -10.4870   22.8070 C   0  0  0  0  0  0  0  0  0  0  0  0
   20.6560  -15.4470   24.5110 C   0  0  0  0  0  0  0  0  0  0  0  0
   13.1050   -9.9980   21.9690 C   0  0  0  0  0  0  0  0  0  0  0  0
   11.4640   -9.6050   23.8700 C   0  0  0  0  0  0  0  0  0  0  0  0
   18.3510  -11.1580   21.7090 H   0  0  0  0  0  0  0  0  0  0  0  0
   18.9740  -12.2980   18.9680 H   0  0  0  0  0  0  0  0  0  0  0  0
   19.7090  -10.9250   19.7780 H   0  0  0  0  0  0  0  0  0  0  0  0
   18.3990  -15.7360   22.5760 H   0  0  0  0  0  0  0  0  0  0  0  0
   16.6120   -9.9540   21.1480 H   0  0  0  0  0  0  0  0  0  0  0  0
   20.9740  -13.3250   19.6710 H   0  0  0  0  0  0  0  0  0  0  0  0
   21.0870  -12.2910   21.0910 H   0  0  0  0  0  0  0  0  0  0  0  0
   16.5320  -16.8440   23.4590 H   0  0  0  0  0  0  0  0  0  0  0  0
   15.6950  -15.4200   23.5620 H   0  0  0  0  0  0  0  0  0  0  0  0
   16.1430  -16.0010   22.0910 H   0  0  0  0  0  0  0  0  0  0  0  0
   17.4540  -14.4790   25.2100 H   0  0  0  0  0  0  0  0  0  0  0  0
   18.0740  -16.0960   25.0760 H   0  0  0  0  0  0  0  0  0  0  0  0
   14.7240   -9.2450   20.0430 H   0  0  0  0  0  0  0  0  0  0  0  0
   14.6470  -10.7190   19.1010 H   0  0  0  0  0  0  0  0  0  0  0  0
   20.2330  -14.1270   22.1950 H   0  0  0  0  0  0  0  0  0  0  0  0
   19.4560  -14.7710   20.7460 H   0  0  0  0  0  0  0  0  0  0  0  0
   18.9870  -12.6840   25.5990 H   0  0  0  0  0  0  0  0  0  0  0  0
   13.7420  -12.8460   20.1860 H   0  0  0  0  0  0  0  0  0  0  0  0
   21.2680  -11.8170   25.7810 H   0  0  0  0  0  0  0  0  0  0  0  0
   11.9200  -13.6980   21.6580 H   0  0  0  0  0  0  0  0  0  0  0  0
   23.2090  -13.2670   25.1550 H   0  0  0  0  0  0  0  0  0  0  0  0
   22.8110  -15.5960   24.3900 H   0  0  0  0  0  0  0  0  0  0  0  0
   20.4930  -16.4550   24.1580 H   0  0  0  0  0  0  0  0  0  0  0  0
   13.4440   -8.9770   22.0680 H   0  0  0  0  0  0  0  0  0  0  0  0
   10.8640  -12.2040   23.3200 H   0  0  0  0  0  0  0  0  0  0  0  0
   11.7630   -8.5630   23.7530 H   0  0  0  0  0  0  0  0  0  0  0  0
   10.3770   -9.6710   23.8410 H   0  0  0  0  0  0  0  0  0  0  0  0
   11.7850   -9.9410   24.8550 H   0  0  0  0  0  0  0  0  0  0  0  0
  1  2  1  0  0  0  0
  1  3  1  0  0  0  0
  1 14  1  0  0  0  0
  2  5  1  0  0  0  0
  2  7  1  0  0  0  0
  2 28  1  1  0  0  0
  3  4  2  0  0  0  0
  3  8  1  0  0  0  0
  5  6  2  0  0  0  0
  5  9  1  0  0  0  0
  7 10  1  0  0  0  0
  7 29  1  0  0  0  0
  7 30  1  0  0  0  0
  8 11  1  0  0  0  0
  8 12  1  0  0  0  0
  8 31  1  6  0  0  0
  9 13  1  0  0  0  0
  9 32  1  0  0  0  0
 10 14  1  0  0  0  0
 10 33  1  0  0  0  0
 10 34  1  0  0  0  0
 11 35  1  0  0  0  0
 11 36  1  0  0  0  0
 11 37  1  0  0  0  0
 12 15  1  0  0  0  0
 12 38  1  0  0  0  0
 12 39  1  0  0  0  0
 13 16  1  0  0  0  0
 13 40  1  0  0  0  0
 13 41  1  0  0  0  0
 14 42  1  0  0  0  0
 14 43  1  0  0  0  0
 15 17  2  0  0  0  0
 15 25  1  0  0  0  0
 16 18  2  0  0  0  0
 16 26  1  0  0  0  0
 17 19  1  0  0  0  0
 17 44  1  0  0  0  0
 18 20  1  0  0  0  0
 18 45  1  0  0  0  0
 19 21  2  0  0  0  0
 19 46  1  0  0  0  0
 20 22  2  0  0  0  0
 20 47  1  0  0  0  0
 21 23  1  0  0  0  0
 21 48  1  0  0  0  0
 22 24  1  0  0  0  0
 22 52  1  0  0  0  0
 23 25  2  0  0  0  0
 23 49  1  0  0  0  0
 24 26  2  0  0  0  0
 24 27  1  0  0  0  0
 25 50  1  0  0  0  0
 26 51  1  0  0  0  0
 27 53  1  0  0  0  0
 27 54  1  0  0  0  0
 27 55  1  0  0  0  0
M  CHG  1  11   1
M  END
