@<TRIPOS>MOLECULE
3a
 55 57 0 0 0
SMALL
GASTEIGER
****

@<TRIPOS>ATOM
      1 N          18.3586  -13.2433   21.6782 N.am    1  UNL1       -0.2853
      2 C          18.1955  -11.9531   20.9799 C.3     1  UNL1        0.1024
      3 C          17.4601  -13.7625   22.5530 C.2     1  UNL1        0.2646
      4 O          16.4632  -13.1349   22.9149 O.2     1  UNL1       -0.2694
      5 C          16.8176  -11.7793   20.3045 C.2     1  UNL1        0.2338
      6 O          16.3847  -12.6581   19.5563 O.2     1  UNL1       -0.2738
      7 C          19.3213  -11.9263   19.9342 C.3     1  UNL1       -0.0243
      8 C          17.6743  -15.1650   23.1542 C.3     1  UNL1        0.0574
      9 N          16.1459  -10.6550   20.5743 N.am    1  UNL1       -0.3097
     10 C          20.3937  -12.8539   20.4646 C.3     1  UNL1       -0.0350
     11 N          16.4158  -15.9247   23.0599 N.4     1  UNL1        0.2276
     12 C          18.1376  -15.1029   24.6287 C.3     1  UNL1        0.0241
     13 C          14.8056  -10.3296   20.1078 C.3     1  UNL1        0.0369
     14 C          19.6396  -13.8634   21.3222 C.3     1  UNL1        0.0157
     15 C          19.5621  -14.6136   24.8242 C.ar    1  UNL1       -0.0415
     16 C          13.7048  -10.8483   21.0151 C.ar    1  UNL1       -0.0301
     17 C          19.8032  -13.3127   25.3021 C.ar    1  UNL1       -0.0584
     18 C          13.2757  -12.1872   20.9048 C.ar    1  UNL1       -0.0571
     19 C          21.1122  -12.8206   25.4158 C.ar    1  UNL1       -0.0615
     20 C          12.2474  -12.6715   21.7347 C.ar    1  UNL1       -0.0612
     21 C          22.1996  -13.6407   25.0687 C.ar    1  UNL1       -0.0617
     22 C          11.6484  -11.8212   22.6817 C.ar    1  UNL1       -0.0588
     23 C          21.9724  -14.9597   24.6331 C.ar    1  UNL1       -0.0615
     24 C          12.0807  -10.4868   22.8072 C.ar    1  UNL1       -0.0501
     25 C          20.6559  -15.4473   24.5109 C.ar    1  UNL1       -0.0584
     26 C          13.1054   -9.9983   21.9692 C.ar    1  UNL1       -0.0542
     27 C          11.4642   -9.6050   23.8704 C.3     1  UNL1       -0.0397
     28 H          18.3513  -11.1579   21.7090 H       1  UNL1        0.0597
     29 H          18.9738  -12.2977   18.9684 H       1  UNL1        0.0288
     30 H          19.7085  -10.9248   19.7784 H       1  UNL1        0.0288
     31 H          18.3994  -15.7356   22.5759 H       1  UNL1        0.0952
     32 H          16.6121   -9.9542   21.1482 H       1  UNL1        0.1491
     33 H          20.9742  -13.3247   19.6706 H       1  UNL1        0.0281
     34 H          21.0870  -12.2912   21.0912 H       1  UNL1        0.0281
     35 H          16.5325  -16.8438   23.4588 H       1  UNL1        0.2002
     36 H          15.6949  -15.4200   23.5622 H       1  UNL1        0.2002
     37 H          16.1429  -16.0014   22.0912 H       1  UNL1        0.2002
     38 H          17.4545  -14.4794   25.2096 H       1  UNL1        0.0373
     39 H          18.0738  -16.0956   25.0759 H       1  UNL1        0.0373
     40 H          14.7242   -9.2447   20.0427 H       1  UNL1        0.0512
     41 H          14.6468  -10.7188   19.1008 H       1  UNL1        0.0512
     42 H          20.2332  -14.1270   22.1951 H       1  UNL1        0.0465
     43 H          19.4557  -14.7713   20.7464 H       1  UNL1        0.0465
     44 H          18.9874  -12.6835   25.5989 H       1  UNL1        0.0620
     45 H          13.7415  -12.8460   20.1858 H       1  UNL1        0.0621
     46 H          21.2679  -11.8171   25.7811 H       1  UNL1        0.0618
     47 H          11.9202  -13.6985   21.6578 H       1  UNL1        0.0618
     48 H          23.2085  -13.2665   25.1547 H       1  UNL1        0.0618
     49 H          22.8108  -15.5961   24.3898 H       1  UNL1        0.0618
     50 H          20.4927  -16.4552   24.1578 H       1  UNL1        0.0620
     51 H          13.4444   -8.9775   22.0683 H       1  UNL1        0.0623
     52 H          10.8638  -12.2037   23.3202 H       1  UNL1        0.0620
     53 H          11.7626   -8.5635   23.7535 H       1  UNL1        0.0278
     54 H          10.3771   -9.6708   23.8407 H       1  UNL1        0.0278
     55 H          11.7848   -9.9408   24.8546 H       1  UNL1        0.0278
@<TRIPOS>BOND
     1     1     2    1
     2     1     3   am
     3     1    14    1
     4     2     5    1
     5     2     7    1
     6     3     4    2
     7     3     8    1
     8     5     6    2
     9     5     9   am
    10     7    10    1
    11     8    11    1
    12     8    12    1
    13     9    13    1
    14    10    14    1
    15    12    15    1
    16    13    16    1
    17    15    17   ar
    18    15    25   ar
    19    16    18   ar
    20    16    26   ar
    21    17    19   ar
    22    18    20   ar
    23    19    21   ar
    24    20    22   ar
    25    21    23   ar
    26    22    24   ar
    27    23    25   ar
    28    24    26   ar
    29    24    27    1
    30     2    28    1
    31     7    29    1
    32     7    30    1
    33     8    31    1
    34     9    32    1
    35    10    33    1
    36    10    34    1
    37    11    35    1
    38    11    36    1
    39    11    37    1
    40    12    38    1
    41    12    39    1
    42    13    40    1
    43    13    41    1
    44    14    42    1
    45    14    43    1
    46    17    44    1
    47    18    45    1
    48    19    46    1
    49    20    47    1
    50    21    48    1
    51    22    52    1
    52    23    49    1
    53    25    50    1
    54    26    51    1
    55    27    53    1
    56    27    54    1
    57    27    55    1
