../datasets/input/HSP90_1/poses/HSP90_82/ligand.pdb
 OpenBabel03111910143D

 24 26  0  0  0  0  0  0  0  0999 V2000
   -1.2300   12.2050   24.1060 N   0  0  0  0  0  0  0  0  0  0  0  0
   -3.4830   12.1490   23.6570 N   0  0  0  0  0  0  0  0  0  0  0  0
   -2.4920   10.2000   24.3620 N   0  0  0  0  0  0  0  0  0  0  0  0
   -2.0000    8.6650   27.5710 C   0  0  0  0  0  0  0  0  0  0  0  0
   -1.8280    7.6760   26.4310 C   0  0  0  0  0  0  0  0  0  0  0  0
   -1.9670    6.2980   26.7050 C   0  0  0  0  0  0  0  0  0  0  0  0
   -1.8370    5.3480   25.6760 C   0  0  0  0  0  0  0  0  0  0  0  0
   -1.5680    5.7730   24.3640 C   0  0  0  0  0  0  0  0  0  0  0  0
   -1.4260    7.1450   24.0870 C   0  0  0  0  0  0  0  0  0  0  0  0
   -1.5440    8.1130   25.1090 C   0  0  0  0  0  0  0  0  0  0  0  0
   -1.3820    9.5360   24.7570 C   0  0  0  0  0  0  0  0  0  0  0  0
   -0.1380   10.1950   24.8510 C   0  0  0  0  0  0  0  0  0  0  0  0
   -0.1070   11.5610   24.4960 C   0  0  0  0  0  0  0  0  0  0  0  0
   -2.3520   11.4890   24.0590 C   0  0  0  0  0  0  0  0  0  0  0  0
    1.1270   12.3600   24.5640 C   0  0  0  0  0  0  0  0  0  0  0  0
    1.0420   13.7230   24.9270 C   0  0  0  0  0  0  0  0  0  0  0  0
    2.1950   14.5270   25.0020 C   0  0  0  0  0  0  0  0  0  0  0  0
    3.4560   13.9730   24.7180 C   0  0  0  0  0  0  0  0  0  0  0  0
    3.5580   12.6150   24.3640 C   0  0  0  0  0  0  0  0  0  0  0  0
    2.4040   11.8090   24.2890 C   0  0  0  0  0  0  0  0  0  0  0  0
    4.8730   14.9530   24.8080 Cl  0  0  0  0  0  0  0  0  0  0  0  0
    2.5910   10.1390   23.8800 Cl  0  0  0  0  0  0  0  0  0  0  0  0
   -3.4360   13.1230   23.3950 H   0  0  0  0  0  0  0  0  0  0  0  0
   -4.3600   11.6570   23.5850 H   0  0  0  0  0  0  0  0  0  0  0  0
  1 14  2  0  0  0  0
  1 13  1  0  0  0  0
  2 23  1  0  0  0  0
  2 24  1  0  0  0  0
  2 14  1  0  0  0  0
  3 14  1  0  0  0  0
  3 11  2  0  0  0  0
  4  5  1  0  0  0  0
  5 10  2  0  0  0  0
  5  6  1  0  0  0  0
  6  7  2  0  0  0  0
  7  8  1  0  0  0  0
  8  9  2  0  0  0  0
  9 10  1  0  0  0  0
 10 11  1  0  0  0  0
 11 12  1  0  0  0  0
 12 13  2  0  0  0  0
 13 15  1  0  0  0  0
 15 20  2  0  0  0  0
 15 16  1  0  0  0  0
 16 17  2  0  0  0  0
 17 18  1  0  0  0  0
 18 19  2  0  0  0  0
 18 21  1  0  0  0  0
 19 20  1  0  0  0  0
 20 22  1  0  0  0  0
M  END
$$$$
