../datasets/input/THROMBIN/poses/5K/ligand.pdb
 OpenBabel02221916063D

 52 54  0  0  1  0  0  0  0  0999 V2000
   38.2770   21.2030   39.9570 C   0  0  1  0  0  0  0  0  0  0  0  0
   38.0540   22.5460   39.4080 C   0  0  0  0  0  0  0  0  0  0  0  0
   37.1010   23.1660   39.7710 O   0  0  0  0  0  0  0  0  0  0  0  0
   38.8450   23.0600   38.4340 N   0  0  0  0  0  0  0  0  0  0  0  0
   38.5140   24.2800   37.7160 C   0  0  2  0  0  0  0  0  0  0  0  0
   37.0070   24.3390   37.2820 C   0  0  0  0  0  0  0  0  0  0  0  0
   36.4260   23.3230   36.9490 O   0  0  0  0  0  0  0  0  0  0  0  0
   39.4720   24.3700   36.6240 C   0  0  0  0  0  0  0  0  0  0  0  0
   40.6050   23.3460   36.8230 C   0  0  0  0  0  0  0  0  0  0  0  0
   40.0680   22.4760   37.8730 C   0  0  0  0  0  0  0  0  0  0  0  0
   36.4230   25.5400   37.2620 N   0  0  0  0  0  0  0  0  0  0  0  0
   35.0780   25.7950   36.8480 C   0  0  0  0  0  0  0  0  0  0  0  0
   34.1830   25.5500   38.0210 C   0  0  0  0  0  0  0  0  0  0  0  0
   33.3190   24.4700   38.0490 C   0  0  0  0  0  0  0  0  0  0  0  0
   32.5010   24.3660   39.1910 C   0  0  0  0  0  0  0  0  0  0  0  0
   32.4320   25.3690   40.1540 C   0  0  0  0  0  0  0  0  0  0  0  0
   33.2170   26.4730   40.0720 C   0  0  0  0  0  0  0  0  0  0  0  0
   34.1210   26.5770   39.0010 C   0  0  0  0  0  0  0  0  0  0  0  0
   33.1630   27.6800   41.3090 C   0  0  0  0  0  0  0  0  0  0  0  0
   38.8210   21.1510   41.3680 C   0  0  0  0  0  0  0  0  0  0  0  0
   42.7190   23.0190   41.9090 C   0  0  0  0  0  0  0  0  0  0  0  0
   42.6590   21.8600   41.1880 C   0  0  0  0  0  0  0  0  0  0  0  0
   41.4390   21.1910   40.8860 C   0  0  0  0  0  0  0  0  0  0  0  0
   40.2800   21.7110   41.4660 C   0  0  0  0  0  0  0  0  0  0  0  0
   40.4010   22.7540   42.3230 C   0  0  0  0  0  0  0  0  0  0  0  0
   41.5410   23.4990   42.5030 C   0  0  0  0  0  0  0  0  0  0  0  0
   36.8590   20.5030   40.0510 N   0  0  0  0  0  0  0  0  0  0  0  0
   38.8560   20.6420   39.2210 H   0  0  0  0  0  0  0  0  0  0  0  0
   38.7750   25.0360   38.4610 H   0  0  0  0  0  0  0  0  0  0  0  0
   39.0980   24.2410   35.6060 H   0  0  0  0  0  0  0  0  0  0  0  0
   40.0130   25.3150   36.7020 H   0  0  0  0  0  0  0  0  0  0  0  0
   40.9330   22.8060   35.9320 H   0  0  0  0  0  0  0  0  0  0  0  0
   41.4790   23.8170   37.2790 H   0  0  0  0  0  0  0  0  0  0  0  0
   40.7880   22.3140   38.6780 H   0  0  0  0  0  0  0  0  0  0  0  0
   39.8040   21.5130   37.4280 H   0  0  0  0  0  0  0  0  0  0  0  0
   36.9790   26.3480   37.5000 H   0  0  0  0  0  0  0  0  0  0  0  0
   34.8090   26.8300   36.6240 H   0  0  0  0  0  0  0  0  0  0  0  0
   34.7050   25.1260   36.0680 H   0  0  0  0  0  0  0  0  0  0  0  0
   33.4440   23.6590   37.3350 H   0  0  0  0  0  0  0  0  0  0  0  0
   31.7080   23.6290   39.0910 H   0  0  0  0  0  0  0  0  0  0  0  0
   31.6600   25.3370   40.9190 H   0  0  0  0  0  0  0  0  0  0  0  0
   34.8600   27.3710   39.0700 H   0  0  0  0  0  0  0  0  0  0  0  0
   38.8700   20.1140   41.7070 H   0  0  0  0  0  0  0  0  0  0  0  0
   38.1810   21.6580   42.0930 H   0  0  0  0  0  0  0  0  0  0  0  0
   43.7000   23.4840   41.9750 H   0  0  0  0  0  0  0  0  0  0  0  0
   43.6020   21.5280   40.7600 H   0  0  0  0  0  0  0  0  0  0  0  0
   41.4990   20.3650   40.1830 H   0  0  0  0  0  0  0  0  0  0  0  0
   39.6150   23.1110   42.9830 H   0  0  0  0  0  0  0  0  0  0  0  0
   41.5240   24.4100   43.0950 H   0  0  0  0  0  0  0  0  0  0  0  0
   36.7060   19.5430   40.4010 H   0  0  0  0  0  0  0  0  0  0  0  0
   36.3250   21.1730   40.6280 H   0  0  0  0  0  0  0  0  0  0  0  0
   36.3500   20.5750   39.1560 H   0  0  0  0  0  0  0  0  0  0  0  0
  1 28  1  6  0  0  0
  1  2  1  0  0  0  0
  1 27  1  0  0  0  0
  1 20  1  0  0  0  0
  2  4  1  0  0  0  0
  2  3  2  0  0  0  0
  4  5  1  0  0  0  0
  4 10  1  0  0  0  0
  5  8  1  0  0  0  0
  5  6  1  0  0  0  0
  5 29  1  1  0  0  0
  6  7  2  0  0  0  0
  6 11  1  0  0  0  0
  8 30  1  0  0  0  0
  8 31  1  0  0  0  0
  8  9  1  0  0  0  0
  9 32  1  0  0  0  0
  9 33  1  0  0  0  0
  9 10  1  0  0  0  0
 10 35  1  0  0  0  0
 10 34  1  0  0  0  0
 11 12  1  0  0  0  0
 11 36  1  0  0  0  0
 12 38  1  0  0  0  0
 12 37  1  0  0  0  0
 12 13  1  0  0  0  0
 13 14  2  0  0  0  0
 13 18  1  0  0  0  0
 14 39  1  0  0  0  0
 14 15  1  0  0  0  0
 15 40  1  0  0  0  0
 15 16  2  0  0  0  0
 16 17  1  0  0  0  0
 16 41  1  0  0  0  0
 17 18  2  0  0  0  0
 17 19  1  0  0  0  0
 18 42  1  0  0  0  0
 20 24  1  0  0  0  0
 20 43  1  0  0  0  0
 20 44  1  0  0  0  0
 21 22  2  0  0  0  0
 21 45  1  0  0  0  0
 21 26  1  0  0  0  0
 22 46  1  0  0  0  0
 22 23  1  0  0  0  0
 23 47  1  0  0  0  0
 23 24  2  0  0  0  0
 24 25  1  0  0  0  0
 25 26  2  0  0  0  0
 25 48  1  0  0  0  0
 26 49  1  0  0  0  0
 27 52  1  0  0  0  0
 27 50  1  0  0  0  0
 27 51  1  0  0  0  0
M  END
