MK2
  xed2sdf_05210316543D
 
 31 32  0  0  0  0  0  0  0  0999 V2000
   39.0108    7.6228   15.8168 C   0  0  0  0  0  0  0  0  0  0  0  0
   39.7628    6.6642   15.9917 O   0  0  0  0  0  0  0  0  0  0  0  0
   39.3847    8.9129   15.9014 N   0  0  0  0  0  0  0  0  0  0  0  0
   40.6707    9.4518   16.1789 C   0  0  0  0  0  0  0  0  0  0  0  0
   41.6984    8.7040   16.7854 C   0  0  0  0  0  0  0  0  0  0  0  0
   42.9339    9.3143   17.0711 C   0  0  0  0  0  0  0  0  0  0  0  0
   43.1409   10.6700   16.7517 C   0  0  0  0  0  0  0  0  0  0  0  0
   42.1184   11.4321   16.1450 C   0  0  0  0  0  0  0  0  0  0  0  0
   42.3323   12.8382   15.8153 C   0  0  0  0  0  0  0  0  0  0  0  0
   43.1854   13.8564   16.9461 S   0  0  0  0  0  0  0  0  0  0  0  0
   43.0171   15.2586   15.9045 C   0  0  0  0  0  0  0  0  0  0  0  0
   43.6040   16.5277   16.3926 C   0  0  0  0  0  0  0  0  0  0  0  0
   43.5028   17.5484   15.6779 O   0  5  0  0  0  0  0  0  0  0  0  0
   44.1829   16.5487   17.5021 O   0  0  0  0  0  0  0  0  0  0  0  0
   42.3335   14.9436   14.7511 C   0  0  0  0  0  0  0  0  0  0  0  0
   42.0633   15.8258   13.7651 O   0  0  0  0  0  0  0  0  0  0  0  0
   40.9041   16.6163   13.9937 C   0  0  0  0  0  0  0  0  0  0  0  0
   40.4216   17.2724   12.6980 C   0  0  0  0  0  0  0  0  0  0  0  0
   41.2809   17.6281   11.8606 O   0  5  0  0  0  0  0  0  0  0  0  0
   39.1845   17.3897   12.5564 O   0  0  0  0  0  0  0  0  0  0  0  0
   41.9618   13.5670   14.7145 C   0  0  0  0  0  0  0  0  0  0  0  0
   40.9941   12.8290   13.2469 Br  0  0  0  0  0  0  0  0  0  0  0  0
   40.8827   10.8086   15.8614 C   0  0  0  0  0  0  0  0  0  0  0  0
   38.6704    9.5921   15.6841 H   0  0  0  0  0  0  0  0  0  0  0  0
   41.5610    7.6677   17.0527 H   0  0  0  0  0  0  0  0  0  0  0  0
   43.7202    8.7433   17.5419 H   0  0  0  0  0  0  0  0  0  0  0  0
   44.0905   11.1286   16.9871 H   0  0  0  0  0  0  0  0  0  0  0  0
   40.0888   16.0102   14.3929 H   0  0  0  0  0  0  0  0  0  0  0  0
   41.1295   17.3893   14.7294 H   0  0  0  0  0  0  0  0  0  0  0  0
   40.0923   11.3709   15.3855 H   0  0  0  0  0  0  0  0  0  0  0  0
   38.0586    7.3955   15.5962 H   0  0  0  0  0  0  0  0  0  0  0  0
  2  1  2  0
  3  1  1  0
  4  3  1  0
  5  4  2  0
  6  5  1  0
  7  6  2  0
  8  7  1  0
  9  8  1  0
 10  9  1  0
 11 10  1  0
 12 11  1  0
 13 12  1  0
 14 12  2  0
 15 11  2  0
 16 15  1  0
 17 16  1  0
 18 17  1  0
 19 18  1  0
 20 18  2  0
 21  9  2  0
 21 15  1  0
 22 21  1  0
 23  4  1  0
 23  8  2  0
  1 31  1  0
 24  3  1  0
 25  5  1  0
 26  6  1  0
 27  7  1  0
 28 17  1  0
 29 17  1  0
 30 23  1  0
M  CHG  2  13  -1  19  -1
M  END
>  <Favorite_cresset>
false

>  <MW_cresset>
398.2

>  <#Atoms_cresset>
23

>  <SlogP_cresset>
3

>  <TPSA_cresset>
118.6

>  <Flexibility_cresset>
3

>  <#RB_cresset>
6

>  <Rof5_cresset>
0

>  <Filename_cresset>
ptp1b_lig12.mol2

>  <_cresset_fieldpoints>
    -5      39.882690       4.850692      15.965590    -14.4082
    -5      44.703987      15.490548      19.009995     -9.4251
    -5      41.280174      10.825397      19.200817     -3.4762
    -5      44.650566      18.403728      17.430477    -12.7478
    -5      43.093987      17.210625      12.311461    -13.3832
    -5      43.508476      17.780844      13.777635    -11.0501
    -5      40.243889      18.338623      10.469770    -11.9918
    -5      39.197868      18.199015      10.821485    -11.6852
    -5      42.784317       8.884992      13.953726     -4.3284
    -6      36.852249       9.746220      15.104733     10.8245
    -6      37.913918      11.224802      15.030551     10.9081
    -6      45.802071       9.744008      18.033972      1.9341
    -6      39.392990      14.658775      16.018528      4.6160
    -7      39.639236       6.871340      18.611172     -1.5985
    -7      38.345787       9.255239      18.429306     -1.6962
    -7      43.488228       6.002186      17.743961     -1.0018
    -7      41.103523      12.240271      19.116833     -2.1961
    -7      39.372818       9.602200      13.128077     -2.2710
    -7      42.978706       9.885420      13.349174     -2.5499
    -7      45.329636      12.580374      14.689064     -2.3793
    -7      43.772324      17.893242      13.319262     -2.1554
    -7      46.205597      15.048836      17.091049     -1.5566
    -7      42.245144      15.339206      11.126177     -2.2107
    -7      38.115852      14.579229      13.870615     -1.6822
    -7      38.336578      15.001497      12.681524     -1.8589
    -7      39.195053      14.024050      16.245914     -2.7397
    -8      41.932404      10.086566      16.468281      6.8307
    -8      37.757484       7.632286      15.516268      1.2610
    -8      42.625229      14.030127      15.778975      7.0348
    -8      41.569412      12.781349      14.519594      5.4805
    -8      41.622311      12.192257      15.326864      5.4383
    -8      40.421204      17.150085      14.147514      2.5460

$$$$
