@<TRIPOS>MOLECULE
3b
 58 60 0 0 0
SMALL
GASTEIGER
****

@<TRIPOS>ATOM
      1 N          18.2837  -13.2167   21.6711 N.am    1  UNL1       -0.2853
      2 C          18.1069  -11.9189   20.9899 C.3     1  UNL1        0.1024
      3 C          17.4006  -13.7476   22.5524 C.2     1  UNL1        0.2646
      4 O          16.4058  -13.1272   22.9305 O.2     1  UNL1       -0.2694
      5 C          16.7158  -11.7247   20.3399 C.2     1  UNL1        0.2338
      6 O          16.2540  -12.5979   19.6030 O.2     1  UNL1       -0.2738
      7 C          19.2212  -11.8811   19.9329 C.3     1  UNL1       -0.0243
      8 C          17.6347  -15.1514   23.1434 C.3     1  UNL1        0.0574
      9 N          16.0668  -10.5871   20.6174 N.am    1  UNL1       -0.3097
     10 C          20.3031  -12.8141   20.4369 C.3     1  UNL1       -0.0350
     11 N          16.3852  -15.9256   23.0521 N.4     1  UNL1        0.2276
     12 C          18.1081  -15.0916   24.6149 C.3     1  UNL1        0.0241
     13 C          14.7238  -10.2228   20.1805 C.3     1  UNL1        0.0369
     14 C          19.5622  -13.8312   21.2959 C.3     1  UNL1        0.0157
     15 C          19.5374  -14.6118   24.8032 C.ar    1  UNL1       -0.0415
     16 C          13.6222  -10.7255   21.0990 C.ar    1  UNL1       -0.0301
     17 C          19.7921  -13.3153   25.2875 C.ar    1  UNL1       -0.0584
     18 C          13.0747   -9.8945   22.1043 C.ar    1  UNL1       -0.0539
     19 C          21.1061  -12.8369   25.4050 C.ar    1  UNL1       -0.0615
     20 C          12.0629  -10.3884   22.9643 C.ar    1  UNL1       -0.0473
     21 C          22.1857  -13.6674   25.0566 C.ar    1  UNL1       -0.0617
     22 C          11.5859  -11.7025   22.7805 C.ar    1  UNL1       -0.0586
     23 C          21.9450  -14.9812   24.6113 C.ar    1  UNL1       -0.0615
     24 C          12.1277  -12.5291   21.7812 C.ar    1  UNL1       -0.0612
     25 C          20.6234  -15.4537   24.4832 C.ar    1  UNL1       -0.0584
     26 C          13.1479  -12.0435   20.9456 C.ar    1  UNL1       -0.0571
     27 C          11.5078   -9.6034   24.1479 C.3     1  UNL1       -0.0305
     28 C          12.0810   -8.1961   24.3903 C.3     1  UNL1       -0.0613
     29 H          18.2787  -11.1344   21.7266 H       1  UNL1        0.0597
     30 H          18.8614  -12.2338   18.9646 H       1  UNL1        0.0288
     31 H          19.6100  -10.8785   19.7968 H       1  UNL1        0.0288
     32 H          18.3615  -15.7122   22.5580 H       1  UNL1        0.0952
     33 H          16.5622   -9.8958   21.1794 H       1  UNL1        0.1491
     34 H          20.8744  -13.2769   19.6309 H       1  UNL1        0.0281
     35 H          21.0054  -12.2575   21.0592 H       1  UNL1        0.0281
     36 H          16.5154  -16.8455   23.4447 H       1  UNL1        0.2002
     37 H          15.6617  -15.4323   23.5622 H       1  UNL1        0.2002
     38 H          16.1072  -15.9998   22.0847 H       1  UNL1        0.2002
     39 H          17.4321  -14.4653   25.2010 H       1  UNL1        0.0373
     40 H          18.0416  -16.0842   25.0622 H       1  UNL1        0.0373
     41 H          14.6655   -9.1359   20.1194 H       1  UNL1        0.0512
     42 H          14.5403  -10.6032   19.1745 H       1  UNL1        0.0512
     43 H          20.1661  -14.0999   22.1609 H       1  UNL1        0.0465
     44 H          19.3741  -14.7354   20.7158 H       1  UNL1        0.0465
     45 H          18.9835  -12.6802   25.5913 H       1  UNL1        0.0620
     46 H          13.4616   -8.8945   22.2257 H       1  UNL1        0.0623
     47 H          21.2725  -11.8372   25.7775 H       1  UNL1        0.0618
     48 H          23.1985  -13.3054   25.1500 H       1  UNL1        0.0618
     49 H          22.7770  -15.6258   24.3660 H       1  UNL1        0.0618
     50 H          11.7679  -13.5422   21.6724 H       1  UNL1        0.0618
     51 H          20.4505  -16.4585   24.1250 H       1  UNL1        0.0620
     52 H          13.5747  -12.6868   20.1893 H       1  UNL1        0.0621
     53 H          10.8150  -12.0976   23.4283 H       1  UNL1        0.0620
     54 H          11.6961  -10.2111   25.0299 H       1  UNL1        0.0311
     55 H          10.4220   -9.5550   24.0585 H       1  UNL1        0.0311
     56 H          11.7103   -7.4962   23.6679 H       1  UNL1        0.0233
     57 H          11.7719   -7.8011   25.3536 H       1  UNL1        0.0233
     58 H          13.1666   -8.1549   24.3557 H       1  UNL1        0.0233
@<TRIPOS>BOND
     1     1     2    1
     2     1     3   am
     3     1    14    1
     4     2     5    1
     5     2     7    1
     6     3     4    2
     7     3     8    1
     8     5     6    2
     9     5     9   am
    10     7    10    1
    11     8    11    1
    12     8    12    1
    13     9    13    1
    14    10    14    1
    15    12    15    1
    16    13    16    1
    17    15    17   ar
    18    15    25   ar
    19    16    18   ar
    20    16    26   ar
    21    17    19   ar
    22    18    20   ar
    23    19    21   ar
    24    20    22   ar
    25    20    27    1
    26    21    23   ar
    27    22    24   ar
    28    23    25   ar
    29    24    26   ar
    30    27    28    1
    31     2    29    1
    32     7    30    1
    33     7    31    1
    34     8    32    1
    35     9    33    1
    36    10    34    1
    37    10    35    1
    38    11    36    1
    39    11    37    1
    40    11    38    1
    41    12    39    1
    42    12    40    1
    43    13    41    1
    44    13    42    1
    45    14    43    1
    46    14    44    1
    47    17    45    1
    48    18    46    1
    49    19    47    1
    50    21    48    1
    51    22    53    1
    52    23    49    1
    53    24    50    1
    54    25    51    1
    55    26    52    1
    56    27    54    1
    57    27    55    1
    58    28    56    1
    59    28    57    1
    60    28    58    1
