../datasets/input/SCHR_THROMBIN/poses/throm_lig3b/ligand.pdb
 OpenBabel02211915413D

 58 60  0  0  1  0  0  0  0  0999 V2000
   18.2840  -13.2170   21.6710 N   0  0  0  0  0  0  0  0  0  0  0  0
   18.1070  -11.9190   20.9900 C   0  0  2  0  0  0  0  0  0  0  0  0
   17.4010  -13.7480   22.5520 C   0  0  0  0  0  0  0  0  0  0  0  0
   16.4060  -13.1270   22.9300 O   0  0  0  0  0  0  0  0  0  0  0  0
   16.7160  -11.7250   20.3400 C   0  0  0  0  0  0  0  0  0  0  0  0
   16.2540  -12.5980   19.6030 O   0  0  0  0  0  0  0  0  0  0  0  0
   19.2210  -11.8810   19.9330 C   0  0  0  0  0  0  0  0  0  0  0  0
   17.6350  -15.1510   23.1430 C   0  0  2  0  0  0  0  0  0  0  0  0
   16.0670  -10.5870   20.6170 N   0  0  0  0  0  0  0  0  0  0  0  0
   20.3030  -12.8140   20.4370 C   0  0  0  0  0  0  0  0  0  0  0  0
   16.3850  -15.9260   23.0520 N   0  3  0  0  0  0  0  0  0  0  0  0
   18.1080  -15.0920   24.6150 C   0  0  0  0  0  0  0  0  0  0  0  0
   14.7240  -10.2230   20.1800 C   0  0  0  0  0  0  0  0  0  0  0  0
   19.5620  -13.8310   21.2960 C   0  0  0  0  0  0  0  0  0  0  0  0
   19.5370  -14.6120   24.8030 C   0  0  0  0  0  0  0  0  0  0  0  0
   13.6220  -10.7260   21.0990 C   0  0  0  0  0  0  0  0  0  0  0  0
   19.7920  -13.3150   25.2880 C   0  0  0  0  0  0  0  0  0  0  0  0
   13.0750   -9.8950   22.1040 C   0  0  0  0  0  0  0  0  0  0  0  0
   21.1060  -12.8370   25.4050 C   0  0  0  0  0  0  0  0  0  0  0  0
   12.0630  -10.3880   22.9640 C   0  0  0  0  0  0  0  0  0  0  0  0
   22.1860  -13.6670   25.0570 C   0  0  0  0  0  0  0  0  0  0  0  0
   11.5860  -11.7030   22.7800 C   0  0  0  0  0  0  0  0  0  0  0  0
   21.9450  -14.9810   24.6110 C   0  0  0  0  0  0  0  0  0  0  0  0
   12.1280  -12.5290   21.7810 C   0  0  0  0  0  0  0  0  0  0  0  0
   20.6230  -15.4540   24.4830 C   0  0  0  0  0  0  0  0  0  0  0  0
   13.1480  -12.0430   20.9460 C   0  0  0  0  0  0  0  0  0  0  0  0
   11.5080   -9.6030   24.1480 C   0  0  0  0  0  0  0  0  0  0  0  0
   12.0810   -8.1960   24.3900 C   0  0  0  0  0  0  0  0  0  0  0  0
   18.2790  -11.1340   21.7270 H   0  0  0  0  0  0  0  0  0  0  0  0
   18.8610  -12.2340   18.9650 H   0  0  0  0  0  0  0  0  0  0  0  0
   19.6100  -10.8790   19.7970 H   0  0  0  0  0  0  0  0  0  0  0  0
   18.3610  -15.7120   22.5580 H   0  0  0  0  0  0  0  0  0  0  0  0
   16.5620   -9.8960   21.1790 H   0  0  0  0  0  0  0  0  0  0  0  0
   20.8740  -13.2770   19.6310 H   0  0  0  0  0  0  0  0  0  0  0  0
   21.0050  -12.2580   21.0590 H   0  0  0  0  0  0  0  0  0  0  0  0
   16.5150  -16.8460   23.4450 H   0  0  0  0  0  0  0  0  0  0  0  0
   15.6620  -15.4320   23.5620 H   0  0  0  0  0  0  0  0  0  0  0  0
   16.1070  -16.0000   22.0850 H   0  0  0  0  0  0  0  0  0  0  0  0
   17.4320  -14.4650   25.2010 H   0  0  0  0  0  0  0  0  0  0  0  0
   18.0420  -16.0840   25.0620 H   0  0  0  0  0  0  0  0  0  0  0  0
   14.6650   -9.1360   20.1190 H   0  0  0  0  0  0  0  0  0  0  0  0
   14.5400  -10.6030   19.1740 H   0  0  0  0  0  0  0  0  0  0  0  0
   20.1660  -14.1000   22.1610 H   0  0  0  0  0  0  0  0  0  0  0  0
   19.3740  -14.7350   20.7160 H   0  0  0  0  0  0  0  0  0  0  0  0
   18.9830  -12.6800   25.5910 H   0  0  0  0  0  0  0  0  0  0  0  0
   13.4620   -8.8950   22.2260 H   0  0  0  0  0  0  0  0  0  0  0  0
   21.2730  -11.8370   25.7770 H   0  0  0  0  0  0  0  0  0  0  0  0
   23.1980  -13.3050   25.1500 H   0  0  0  0  0  0  0  0  0  0  0  0
   22.7770  -15.6260   24.3660 H   0  0  0  0  0  0  0  0  0  0  0  0
   11.7680  -13.5420   21.6720 H   0  0  0  0  0  0  0  0  0  0  0  0
   20.4510  -16.4590   24.1250 H   0  0  0  0  0  0  0  0  0  0  0  0
   13.5750  -12.6870   20.1890 H   0  0  0  0  0  0  0  0  0  0  0  0
   10.8150  -12.0980   23.4280 H   0  0  0  0  0  0  0  0  0  0  0  0
   11.6960  -10.2110   25.0300 H   0  0  0  0  0  0  0  0  0  0  0  0
   10.4220   -9.5550   24.0580 H   0  0  0  0  0  0  0  0  0  0  0  0
   11.7100   -7.4960   23.6680 H   0  0  0  0  0  0  0  0  0  0  0  0
   11.7720   -7.8010   25.3540 H   0  0  0  0  0  0  0  0  0  0  0  0
   13.1670   -8.1550   24.3560 H   0  0  0  0  0  0  0  0  0  0  0  0
  1  2  1  0  0  0  0
  1  3  1  0  0  0  0
  1 14  1  0  0  0  0
  2  5  1  0  0  0  0
  2  7  1  0  0  0  0
  2 29  1  1  0  0  0
  3  4  2  0  0  0  0
  3  8  1  0  0  0  0
  5  6  2  0  0  0  0
  5  9  1  0  0  0  0
  7 10  1  0  0  0  0
  7 30  1  0  0  0  0
  7 31  1  0  0  0  0
  8 11  1  0  0  0  0
  8 12  1  0  0  0  0
  8 32  1  6  0  0  0
  9 13  1  0  0  0  0
  9 33  1  0  0  0  0
 10 14  1  0  0  0  0
 10 34  1  0  0  0  0
 10 35  1  0  0  0  0
 11 36  1  0  0  0  0
 11 37  1  0  0  0  0
 11 38  1  0  0  0  0
 12 15  1  0  0  0  0
 12 39  1  0  0  0  0
 12 40  1  0  0  0  0
 13 16  1  0  0  0  0
 13 41  1  0  0  0  0
 13 42  1  0  0  0  0
 14 43  1  0  0  0  0
 14 44  1  0  0  0  0
 15 17  2  0  0  0  0
 15 25  1  0  0  0  0
 16 18  2  0  0  0  0
 16 26  1  0  0  0  0
 17 19  1  0  0  0  0
 17 45  1  0  0  0  0
 18 20  1  0  0  0  0
 18 46  1  0  0  0  0
 19 21  2  0  0  0  0
 19 47  1  0  0  0  0
 20 22  2  0  0  0  0
 20 27  1  0  0  0  0
 21 23  1  0  0  0  0
 21 48  1  0  0  0  0
 22 24  1  0  0  0  0
 22 53  1  0  0  0  0
 23 25  2  0  0  0  0
 23 49  1  0  0  0  0
 24 26  2  0  0  0  0
 24 50  1  0  0  0  0
 25 51  1  0  0  0  0
 26 52  1  0  0  0  0
 27 28  1  0  0  0  0
 27 54  1  0  0  0  0
 27 55  1  0  0  0  0
 28 56  1  0  0  0  0
 28 57  1  0  0  0  0
 28 58  1  0  0  0  0
M  CHG  1  11   1
M  END
