../datasets/input/ACK1/poses/ACK1_4/ligand.pdb
 OpenBabel03111910153D

 49 53  0  0  1  0  0  0  0  0999 V2000
   52.3740   48.2690   48.2420 C   0  0  0  0  0  0  0  0  0  0  0  0
   52.8370   47.5840   48.9520 H   0  0  0  0  0  0  0  0  0  0  0  0
   53.1620   49.0760   47.4300 C   0  0  0  0  0  0  0  0  0  0  0  0
   54.2460   49.0370   47.5230 H   0  0  0  0  0  0  0  0  0  0  0  0
   50.9850   48.3070   48.1320 C   0  0  0  0  0  0  0  0  0  0  0  0
   50.3650   47.6830   48.7620 H   0  0  0  0  0  0  0  0  0  0  0  0
   50.3940   49.1560   47.1810 C   0  0  0  0  0  0  0  0  0  0  0  0
   49.3070   49.1860   47.1100 H   0  0  0  0  0  0  0  0  0  0  0  0
   51.1790   49.9210   46.3430 C   0  0  0  0  0  0  0  0  0  0  0  0
   50.7110   50.5670   45.6020 H   0  0  0  0  0  0  0  0  0  0  0  0
   52.5760   49.8770   46.4590 C   0  0  0  0  0  0  0  0  0  0  0  0
   53.3810   50.5740   45.5990 N   0  0  0  0  0  0  0  0  0  0  0  0
   54.0700   50.0590   44.5720 C   0  0  0  0  0  0  0  0  0  0  0  0
   54.4520   48.7710   44.2440 C   0  0  0  0  0  0  0  0  0  0  0  0
   54.1090   47.6920   44.9670 N   0  0  0  0  0  0  0  0  0  0  0  0
   53.4520   47.8300   45.7290 H   0  0  0  0  0  0  0  0  0  0  0  0
   54.3210   46.2970   44.5320 C   0  0  0  0  0  0  0  0  0  0  0  0
   53.2970   45.3310   45.1720 C   0  0  1  0  0  0  0  0  0  0  0  0
   53.5750   44.2940   44.9580 H   0  0  0  0  0  0  0  0  0  0  0  0
   53.2410   45.5070   46.6060 O   0  0  0  0  0  0  0  0  0  0  0  0
   52.0080   44.9180   47.0780 C   0  0  0  0  0  0  0  0  0  0  0  0
   50.9930   45.1970   45.9610 C   0  0  0  0  0  0  0  0  0  0  0  0
   51.8390   45.5700   44.7370 C   0  0  0  0  0  0  0  0  0  0  0  0
   51.6800   46.6160   44.4830 H   0  0  0  0  0  0  0  0  0  0  0  0
   51.5690   44.9620   43.8740 H   0  0  0  0  0  0  0  0  0  0  0  0
   50.3840   44.3090   45.7710 H   0  0  0  0  0  0  0  0  0  0  0  0
   50.3300   46.0200   46.2360 H   0  0  0  0  0  0  0  0  0  0  0  0
   52.1510   43.8400   47.1990 H   0  0  0  0  0  0  0  0  0  0  0  0
   51.7010   45.3720   48.0230 H   0  0  0  0  0  0  0  0  0  0  0  0
   55.3300   45.9850   44.8150 H   0  0  0  0  0  0  0  0  0  0  0  0
   54.2390   46.2230   43.4440 H   0  0  0  0  0  0  0  0  0  0  0  0
   55.1810   48.5420   43.1410 N   0  0  0  0  0  0  0  0  0  0  0  0
   55.4780   49.5980   42.3910 C   0  0  0  0  0  0  0  0  0  0  0  0
   56.0510   49.4130   41.4870 H   0  0  0  0  0  0  0  0  0  0  0  0
   55.1210   50.8840   42.6220 N   0  0  0  0  0  0  0  0  0  0  0  0
   54.4150   51.0780   43.7390 C   0  0  0  0  0  0  0  0  0  0  0  0
   53.9590   52.2370   44.1800 N   0  0  0  0  0  0  0  0  0  0  0  0
   53.2820   51.9410   45.3290 C   0  0  0  0  0  0  0  0  0  0  0  0
   52.6310   52.9490   46.1610 C   0  0  0  0  0  0  0  0  0  0  0  0
   52.5650   54.2680   45.6550 C   0  0  0  0  0  0  0  0  0  0  0  0
   52.9700   54.4900   44.6730 H   0  0  0  0  0  0  0  0  0  0  0  0
   51.9730   55.2920   46.3820 C   0  0  0  0  0  0  0  0  0  0  0  0
   51.9150   56.2950   45.9610 H   0  0  0  0  0  0  0  0  0  0  0  0
   51.4400   55.0370   47.6430 C   0  0  0  0  0  0  0  0  0  0  0  0
   50.9780   55.8420   48.2160 H   0  0  0  0  0  0  0  0  0  0  0  0
   51.5050   53.7620   48.1700 C   0  0  0  0  0  0  0  0  0  0  0  0
   51.1110   53.5480   49.1600 H   0  0  0  0  0  0  0  0  0  0  0  0
   52.1010   52.7220   47.4320 C   0  0  0  0  0  0  0  0  0  0  0  0
   52.1490   51.7610   47.9250 H   0  0  0  0  0  0  0  0  0  0  0  0
  1  2  1  0  0  0  0
  1  3  2  0  0  0  0
  1  5  1  0  0  0  0
  3  4  1  0  0  0  0
  3 11  1  0  0  0  0
  5  6  1  0  0  0  0
  5  7  2  0  0  0  0
  7  8  1  0  0  0  0
  7  9  1  0  0  0  0
  9 10  1  0  0  0  0
  9 11  2  0  0  0  0
 11 12  1  0  0  0  0
 12 13  1  0  0  0  0
 12 38  1  0  0  0  0
 13 14  2  0  0  0  0
 13 36  1  0  0  0  0
 14 15  1  0  0  0  0
 14 32  1  0  0  0  0
 15 16  1  0  0  0  0
 15 17  1  0  0  0  0
 17 18  1  0  0  0  0
 17 30  1  0  0  0  0
 17 31  1  0  0  0  0
 18 19  1  6  0  0  0
 18 20  1  0  0  0  0
 18 23  1  0  0  0  0
 20 21  1  0  0  0  0
 21 22  1  0  0  0  0
 21 28  1  0  0  0  0
 21 29  1  0  0  0  0
 22 23  1  0  0  0  0
 22 26  1  0  0  0  0
 22 27  1  0  0  0  0
 23 24  1  0  0  0  0
 23 25  1  0  0  0  0
 32 33  2  0  0  0  0
 33 34  1  0  0  0  0
 33 35  1  0  0  0  0
 35 36  2  0  0  0  0
 36 37  1  0  0  0  0
 37 38  2  0  0  0  0
 38 39  1  0  0  0  0
 39 40  2  0  0  0  0
 39 48  1  0  0  0  0
 40 41  1  0  0  0  0
 40 42  1  0  0  0  0
 42 43  1  0  0  0  0
 42 44  2  0  0  0  0
 44 45  1  0  0  0  0
 44 46  1  0  0  0  0
 46 47  1  0  0  0  0
 46 48  2  0  0  0  0
 48 49  1  0  0  0  0
M  END
$$$$
