@<TRIPOS>MOLECULE
ligand4_1.pdb
49 53 1 0 0
SMALL
AMBER ff14SB


@<TRIPOS>ATOM
      1 C18        52.3740   48.2690   48.2420 C.ar      1 LIG   -0.1250
      2 H14        52.8370   47.5840   48.9520 H         1 LIG    0.1430
      3 C19        53.1620   49.0760   47.4300 C.ar      1 LIG   -0.1200
      4 H15        54.2460   49.0370   47.5230 H         1 LIG    0.1525
      5 C17        50.9850   48.3070   48.1320 C.ar      1 LIG   -0.1240
      6 H13        50.3650   47.6830   48.7620 H         1 LIG    0.1390
      7 C16        50.3940   49.1560   47.1810 C.ar      1 LIG   -0.1250
      8 H12        49.3070   49.1860   47.1100 H         1 LIG    0.1430
      9 C15        51.1790   49.9210   46.3430 C.ar      1 LIG   -0.1200
     10 H11        50.7110   50.5670   45.6020 H         1 LIG    0.1525
     11 C2         52.5760   49.8770   46.4590 C.ar      1 LIG   -0.0072
     12 N1         53.3810   50.5740   45.5990 N.ar      1 LIG   -0.0645
     13 C1         54.0700   50.0590   44.5720 C.ar      1 LIG   -0.3319
     14 C5         54.4520   48.7710   44.2440 C.ar      1 LIG    0.6942
     15 N3         54.1090   47.6920   44.9670 N.pl3     1 LIG   -0.8299
     16 H1         53.4520   47.8300   45.7290 H         1 LIG    0.4238
     17 C6         54.3210   46.2970   44.5320 C.3       1 LIG    0.1868
     18 C7         53.2970   45.3310   45.1720 C.3       1 LIG    0.1301
     19 H2         53.5750   44.2940   44.9580 H         1 LIG    0.0597
     20 O1         53.2410   45.5070   46.6060 O.3       1 LIG   -0.4326
     21 C22        52.0080   44.9180   47.0780 C.3       1 LIG    0.1234
     22 C21        50.9930   45.1970   45.9610 C.3       1 LIG   -0.1054
     23 C20        51.8390   45.5700   44.7370 C.3       1 LIG   -0.1044
     24 H16        51.6800   46.6160   44.4830 H         1 LIG    0.0622
     25 H21        51.5690   44.9620   43.8740 H         1 LIG    0.0622
     26 H17        50.3840   44.3090   45.7710 H         1 LIG    0.0537
     27 H18        50.3300   46.0200   46.2360 H         1 LIG    0.0537
     28 H19        52.1510   43.8400   47.1990 H         1 LIG    0.0467
     29 H20        51.7010   45.3720   48.0230 H         1 LIG    0.0467
     30 H3         55.3300   45.9850   44.8150 H         1 LIG    0.0617
     31 H4         54.2390   46.2230   43.4440 H         1 LIG    0.0617
     32 N4         55.1810   48.5420   43.1410 N.ar      1 LIG   -0.7630
     33 C8         55.4780   49.5980   42.3910 C.ar      1 LIG    0.6479
     34 H5         56.0510   49.4130   41.4870 H         1 LIG    0.0531
     35 N5         55.1210   50.8840   42.6220 N.ar      1 LIG   -0.6650
     36 C9         54.4150   51.0780   43.7390 C.ar      1 LIG    0.6173
     37 N2         53.9590   52.2370   44.1800 N.ar      1 LIG   -0.3810
     38 C3         53.2820   51.9410   45.3290 C.ar      1 LIG    0.0998
     39 C4         52.6310   52.9490   46.1610 C.ar      1 LIG   -0.0528
     40 C10        52.5650   54.2680   45.6550 C.ar      1 LIG   -0.0920
     41 H6         52.9700   54.4900   44.6730 H         1 LIG    0.1480
     42 C11        51.9730   55.2920   46.3820 C.ar      1 LIG   -0.1375
     43 H7         51.9150   56.2950   45.9610 H         1 LIG    0.1375
     44 C12        51.4400   55.0370   47.6430 C.ar      1 LIG   -0.1110
     45 H8         50.9780   55.8420   48.2160 H         1 LIG    0.1350
     46 C13        51.5050   53.7620   48.1700 C.ar      1 LIG   -0.1375
     47 H9         51.1110   53.5480   49.1600 H         1 LIG    0.1375
     48 C14        52.1010   52.7220   47.4320 C.ar      1 LIG   -0.0920
     49 H10        52.1490   51.7610   47.9250 H         1 LIG    0.1480
@<TRIPOS>BOND
     1    1    2 1
     2    1    3 ar
     3    1    5 ar
     4    3    4 1
     5    3   11 ar
     6    5    6 1
     7    5    7 ar
     8    7    8 1
     9    7    9 ar
    10    9   10 1
    11    9   11 ar
    12   11   12 1
    13   12   13 ar
    14   12   38 ar
    15   13   14 ar
    16   13   36 ar
    17   14   15 1
    18   14   32 ar
    19   15   16 1
    20   15   17 1
    21   17   18 1
    22   17   30 1
    23   17   31 1
    24   18   19 1
    25   18   20 1
    26   18   23 1
    27   20   21 1
    28   21   22 1
    29   21   28 1
    30   21   29 1
    31   22   23 1
    32   22   26 1
    33   22   27 1
    34   23   24 1
    35   23   25 1
    36   32   33 ar
    37   33   34 1
    38   33   35 ar
    39   35   36 ar
    40   36   37 ar
    41   37   38 ar
    42   38   39 1
    43   39   40 ar
    44   39   48 ar
    45   40   41 1
    46   40   42 ar
    47   42   43 1
    48   42   44 ar
    49   44   45 1
    50   44   46 ar
    51   46   47 1
    52   46   48 ar
    53   48   49 1
@<TRIPOS>SUBSTRUCTURE
     1 LIG     1 RESIDUE           4 A     LIG     0 ROOT
