../datasets/input/HSP90_1/poses/HSP90_81/ligand.pdb
 OpenBabel03111910143D

 26 28  0  0  0  0  0  0  0  0999 V2000
   -0.8650   10.8600   23.8410 N   0  0  0  0  0  0  0  0  0  0  0  0
   -3.0920   10.7160   23.2960 N   0  0  0  0  0  0  0  0  0  0  0  0
   -2.1200    8.8810   24.2810 N   0  0  0  0  0  0  0  0  0  0  0  0
    0.7020    4.5950   22.7860 C   0  0  0  0  0  0  0  0  0  0  0  0
    0.0140    5.8610   23.2930 C   0  0  0  0  0  0  0  0  0  0  0  0
   -0.7440    5.7590   24.5790 C   0  0  0  0  0  0  0  0  0  0  0  0
   -0.9730    4.4750   25.1320 C   0  0  0  0  0  0  0  0  0  0  0  0
   -1.6350    4.3240   26.3630 C   0  0  0  0  0  0  0  0  0  0  0  0
   -2.0710    5.4580   27.0660 C   0  0  0  0  0  0  0  0  0  0  0  0
   -1.8450    6.7390   26.5310 C   0  0  0  0  0  0  0  0  0  0  0  0
   -1.1880    6.9110   25.2930 C   0  0  0  0  0  0  0  0  0  0  0  0
   -1.0210    8.2900   24.8000 C   0  0  0  0  0  0  0  0  0  0  0  0
    0.2100    8.9740   24.8770 C   0  0  0  0  0  0  0  0  0  0  0  0
    0.2400   10.2910   24.3750 C   0  0  0  0  0  0  0  0  0  0  0  0
   -1.9760   10.1260   23.8300 C   0  0  0  0  0  0  0  0  0  0  0  0
    1.4710   11.1000   24.3690 C   0  0  0  0  0  0  0  0  0  0  0  0
    2.7170   10.4500   24.5090 C   0  0  0  0  0  0  0  0  0  0  0  0
    3.9210   11.1820   24.5050 C   0  0  0  0  0  0  0  0  0  0  0  0
    3.8900   12.5800   24.3660 C   0  0  0  0  0  0  0  0  0  0  0  0
    2.6560   13.2430   24.2340 C   0  0  0  0  0  0  0  0  0  0  0  0
    1.4510   12.5110   24.2380 C   0  0  0  0  0  0  0  0  0  0  0  0
    0.1100    6.8900   22.6240 O   0  0  0  0  0  0  0  0  0  0  0  0
    5.3610   13.4820   24.3610 Cl  0  0  0  0  0  0  0  0  0  0  0  0
   -0.0390   13.3790   24.1040 Cl  0  0  0  0  0  0  0  0  0  0  0  0
   -3.0440   11.6540   22.9280 H   0  0  0  0  0  0  0  0  0  0  0  0
   -3.9620   10.2070   23.2490 H   0  0  0  0  0  0  0  0  0  0  0  0
  1 15  2  0  0  0  0
  1 14  1  0  0  0  0
  2 25  1  0  0  0  0
  2 26  1  0  0  0  0
  2 15  1  0  0  0  0
  3 15  1  0  0  0  0
  3 12  2  0  0  0  0
  4  5  1  0  0  0  0
  5 22  2  0  0  0  0
  5  6  1  0  0  0  0
  6  7  2  0  0  0  0
  6 11  1  0  0  0  0
  7  8  1  0  0  0  0
  8  9  2  0  0  0  0
  9 10  1  0  0  0  0
 10 11  2  0  0  0  0
 11 12  1  0  0  0  0
 12 13  1  0  0  0  0
 13 14  2  0  0  0  0
 14 16  1  0  0  0  0
 16 21  2  0  0  0  0
 16 17  1  0  0  0  0
 17 18  2  0  0  0  0
 18 19  1  0  0  0  0
 19 20  2  0  0  0  0
 19 23  1  0  0  0  0
 20 21  1  0  0  0  0
 21 24  1  0  0  0  0
M  END
$$$$
