@<TRIPOS>MOLECULE
6a
 52 54 0 0 0
SMALL
GASTEIGER
****

@<TRIPOS>ATOM
      1 N          18.2157  -13.2003   21.6863 N.am    1  UNL1       -0.2853
      2 C          18.0087  -11.9014   21.0167 C.3     1  UNL1        0.1024
      3 C          17.3504  -13.7474   22.5740 C.2     1  UNL1        0.2646
      4 O          16.3550  -13.1366   22.9677 O.2     1  UNL1       -0.2694
      5 C          16.6062  -11.7346   20.3818 C.2     1  UNL1        0.2338
      6 O          16.1572  -12.6195   19.6529 O.2     1  UNL1       -0.2738
      7 C          19.1142  -11.8355   19.9533 C.3     1  UNL1       -0.0243
      8 C          17.6071  -15.1533   23.1501 C.3     1  UNL1        0.0574
      9 N          15.9284  -10.6140   20.6664 N.am    1  UNL1       -0.3096
     10 C          20.2121  -12.7673   20.4270 C.3     1  UNL1       -0.0350
     11 N          16.3676  -15.9435   23.0624 N.4     1  UNL1        0.2276
     12 C          18.0947  -15.1005   24.6172 C.3     1  UNL1        0.0241
     13 C          14.5615  -10.3074   20.2469 C.3     1  UNL1        0.0383
     14 C          19.4961  -13.7972   21.2906 C.3     1  UNL1        0.0157
     15 C          19.5224  -14.6112   24.7960 C.ar    1  UNL1       -0.0415
     16 C          13.5216  -10.3907   21.3623 C.ar    1  UNL1       -0.0107
     17 C          19.7728  -13.3212   25.2992 C.ar    1  UNL1       -0.0584
     18 C          12.7061  -11.5351   21.5535 C.ar    1  UNL1        0.0457
     19 C          21.0848  -12.8362   25.4155 C.ar    1  UNL1       -0.0615
     20 C          11.7284  -11.5437   22.5691 C.ar    1  UNL1       -0.0417
     21 C          22.1672  -13.6542   25.0464 C.ar    1  UNL1       -0.0617
     22 C          11.5492  -10.4209   23.3986 C.ar    1  UNL1       -0.0420
     23 C          21.9309  -14.9609   24.5786 C.ar    1  UNL1       -0.0615
     24 C          12.3658   -9.2886   23.2270 C.ar    1  UNL1        0.0414
     25 C          20.6114  -15.4396   24.4521 C.ar    1  UNL1       -0.0584
     26 C          13.3428   -9.2754   22.2113 C.ar    1  UNL1       -0.0373
     27 CL         12.8565  -12.9335   20.5533 Cl      1  UNL1       -0.0832
     28 CL         12.1952   -7.9330   24.2824 Cl      1  UNL1       -0.0835
     29 H          18.1730  -11.1184   21.7562 H       1  UNL1        0.0597
     30 H          18.7508  -12.1659   18.9784 H       1  UNL1        0.0288
     31 H          19.4937  -10.8268   19.8451 H       1  UNL1        0.0288
     32 H          18.3351  -15.7000   22.5532 H       1  UNL1        0.0952
     33 H          16.4243   -9.9023   21.2009 H       1  UNL1        0.1491
     34 H          20.7720  -13.2186   19.6062 H       1  UNL1        0.0281
     35 H          20.9234  -12.2129   21.0409 H       1  UNL1        0.0281
     36 H          16.5136  -16.8648   23.4463 H       1  UNL1        0.2002
     37 H          15.6419  -15.4639   23.5823 H       1  UNL1        0.2002
     38 H          16.0827  -16.0137   22.0966 H       1  UNL1        0.2002
     39 H          17.4195  -14.4847   25.2152 H       1  UNL1        0.0373
     40 H          18.0410  -16.0970   25.0572 H       1  UNL1        0.0373
     41 H          14.5615   -9.2765   19.8995 H       1  UNL1        0.0512
     42 H          14.2593  -10.9054   19.3856 H       1  UNL1        0.0512
     43 H          20.1147  -14.0626   22.1463 H       1  UNL1        0.0465
     44 H          19.3114  -14.7010   20.7086 H       1  UNL1        0.0465
     45 H          18.9623  -12.6976   25.6212 H       1  UNL1        0.0620
     46 H          21.2481  -11.8420   25.8042 H       1  UNL1        0.0618
     47 H          11.1072  -12.4173   22.7110 H       1  UNL1        0.0633
     48 H          23.1789  -13.2889   25.1412 H       1  UNL1        0.0618
     49 H          22.7647  -15.5963   24.3164 H       1  UNL1        0.0618
     50 H          20.4423  -16.4395   24.0787 H       1  UNL1        0.0620
     51 H          13.9669   -8.4033   22.0925 H       1  UNL1        0.0636
     52 H          10.7951  -10.4367   24.1734 H       1  UNL1        0.0633
@<TRIPOS>BOND
     1     1     2    1
     2     1     3   am
     3     1    14    1
     4     2     5    1
     5     2     7    1
     6     3     4    2
     7     3     8    1
     8     5     6    2
     9     5     9   am
    10     7    10    1
    11     8    11    1
    12     8    12    1
    13     9    13    1
    14    10    14    1
    15    12    15    1
    16    13    16    1
    17    15    17   ar
    18    15    25   ar
    19    16    18   ar
    20    16    26   ar
    21    17    19   ar
    22    18    20   ar
    23    18    27    1
    24    19    21   ar
    25    20    22   ar
    26    21    23   ar
    27    22    24   ar
    28    23    25   ar
    29    24    26   ar
    30    24    28    1
    31     2    29    1
    32     7    30    1
    33     7    31    1
    34     8    32    1
    35     9    33    1
    36    10    34    1
    37    10    35    1
    38    11    36    1
    39    11    37    1
    40    11    38    1
    41    12    39    1
    42    12    40    1
    43    13    41    1
    44    13    42    1
    45    14    43    1
    46    14    44    1
    47    17    45    1
    48    19    46    1
    49    20    47    1
    50    21    48    1
    51    22    52    1
    52    23    49    1
    53    25    50    1
    54    26    51    1
