../datasets/input/SCHR_THROMBIN/poses/throm_lig6a/ligand.pdb
 OpenBabel02211915413D

 52 54  0  0  1  0  0  0  0  0999 V2000
   18.2160  -13.2000   21.6860 N   0  0  0  0  0  0  0  0  0  0  0  0
   18.0090  -11.9010   21.0170 C   0  0  2  0  0  0  0  0  0  0  0  0
   17.3500  -13.7470   22.5740 C   0  0  0  0  0  0  0  0  0  0  0  0
   16.3550  -13.1370   22.9680 O   0  0  0  0  0  0  0  0  0  0  0  0
   16.6060  -11.7350   20.3820 C   0  0  0  0  0  0  0  0  0  0  0  0
   16.1570  -12.6200   19.6530 O   0  0  0  0  0  0  0  0  0  0  0  0
   19.1140  -11.8350   19.9530 C   0  0  0  0  0  0  0  0  0  0  0  0
   17.6070  -15.1530   23.1500 C   0  0  2  0  0  0  0  0  0  0  0  0
   15.9280  -10.6140   20.6660 N   0  0  0  0  0  0  0  0  0  0  0  0
   20.2120  -12.7670   20.4270 C   0  0  0  0  0  0  0  0  0  0  0  0
   16.3680  -15.9440   23.0620 N   0  3  0  0  0  0  0  0  0  0  0  0
   18.0950  -15.1010   24.6170 C   0  0  0  0  0  0  0  0  0  0  0  0
   14.5620  -10.3070   20.2470 C   0  0  0  0  0  0  0  0  0  0  0  0
   19.4960  -13.7970   21.2910 C   0  0  0  0  0  0  0  0  0  0  0  0
   19.5220  -14.6110   24.7960 C   0  0  0  0  0  0  0  0  0  0  0  0
   13.5220  -10.3910   21.3620 C   0  0  0  0  0  0  0  0  0  0  0  0
   19.7730  -13.3210   25.2990 C   0  0  0  0  0  0  0  0  0  0  0  0
   12.7060  -11.5350   21.5530 C   0  0  0  0  0  0  0  0  0  0  0  0
   21.0850  -12.8360   25.4160 C   0  0  0  0  0  0  0  0  0  0  0  0
   11.7280  -11.5440   22.5690 C   0  0  0  0  0  0  0  0  0  0  0  0
   22.1670  -13.6540   25.0460 C   0  0  0  0  0  0  0  0  0  0  0  0
   11.5490  -10.4210   23.3990 C   0  0  0  0  0  0  0  0  0  0  0  0
   21.9310  -14.9610   24.5790 C   0  0  0  0  0  0  0  0  0  0  0  0
   12.3660   -9.2890   23.2270 C   0  0  0  0  0  0  0  0  0  0  0  0
   20.6110  -15.4400   24.4520 C   0  0  0  0  0  0  0  0  0  0  0  0
   13.3430   -9.2750   22.2110 C   0  0  0  0  0  0  0  0  0  0  0  0
   12.8570  -12.9340   20.5530 Cl  0  0  0  0  0  0  0  0  0  0  0  0
   12.1950   -7.9330   24.2820 Cl  0  0  0  0  0  0  0  0  0  0  0  0
   18.1730  -11.1180   21.7560 H   0  0  0  0  0  0  0  0  0  0  0  0
   18.7510  -12.1660   18.9780 H   0  0  0  0  0  0  0  0  0  0  0  0
   19.4940  -10.8270   19.8450 H   0  0  0  0  0  0  0  0  0  0  0  0
   18.3350  -15.7000   22.5530 H   0  0  0  0  0  0  0  0  0  0  0  0
   16.4240   -9.9020   21.2010 H   0  0  0  0  0  0  0  0  0  0  0  0
   20.7720  -13.2190   19.6060 H   0  0  0  0  0  0  0  0  0  0  0  0
   20.9230  -12.2130   21.0410 H   0  0  0  0  0  0  0  0  0  0  0  0
   16.5140  -16.8650   23.4460 H   0  0  0  0  0  0  0  0  0  0  0  0
   15.6420  -15.4640   23.5820 H   0  0  0  0  0  0  0  0  0  0  0  0
   16.0830  -16.0140   22.0970 H   0  0  0  0  0  0  0  0  0  0  0  0
   17.4190  -14.4850   25.2150 H   0  0  0  0  0  0  0  0  0  0  0  0
   18.0410  -16.0970   25.0570 H   0  0  0  0  0  0  0  0  0  0  0  0
   14.5620   -9.2770   19.8990 H   0  0  0  0  0  0  0  0  0  0  0  0
   14.2590  -10.9050   19.3860 H   0  0  0  0  0  0  0  0  0  0  0  0
   20.1150  -14.0630   22.1460 H   0  0  0  0  0  0  0  0  0  0  0  0
   19.3110  -14.7010   20.7090 H   0  0  0  0  0  0  0  0  0  0  0  0
   18.9620  -12.6980   25.6210 H   0  0  0  0  0  0  0  0  0  0  0  0
   21.2480  -11.8420   25.8040 H   0  0  0  0  0  0  0  0  0  0  0  0
   11.1070  -12.4170   22.7110 H   0  0  0  0  0  0  0  0  0  0  0  0
   23.1790  -13.2890   25.1410 H   0  0  0  0  0  0  0  0  0  0  0  0
   22.7650  -15.5960   24.3160 H   0  0  0  0  0  0  0  0  0  0  0  0
   20.4420  -16.4390   24.0790 H   0  0  0  0  0  0  0  0  0  0  0  0
   13.9670   -8.4030   22.0930 H   0  0  0  0  0  0  0  0  0  0  0  0
   10.7950  -10.4370   24.1730 H   0  0  0  0  0  0  0  0  0  0  0  0
  1  2  1  0  0  0  0
  1  3  1  0  0  0  0
  1 14  1  0  0  0  0
  2  5  1  0  0  0  0
  2  7  1  0  0  0  0
  2 29  1  1  0  0  0
  3  4  2  0  0  0  0
  3  8  1  0  0  0  0
  5  6  2  0  0  0  0
  5  9  1  0  0  0  0
  7 10  1  0  0  0  0
  7 30  1  0  0  0  0
  7 31  1  0  0  0  0
  8 11  1  0  0  0  0
  8 12  1  0  0  0  0
  8 32  1  6  0  0  0
  9 13  1  0  0  0  0
  9 33  1  0  0  0  0
 10 14  1  0  0  0  0
 10 34  1  0  0  0  0
 10 35  1  0  0  0  0
 11 36  1  0  0  0  0
 11 37  1  0  0  0  0
 11 38  1  0  0  0  0
 12 15  1  0  0  0  0
 12 39  1  0  0  0  0
 12 40  1  0  0  0  0
 13 16  1  0  0  0  0
 13 41  1  0  0  0  0
 13 42  1  0  0  0  0
 14 43  1  0  0  0  0
 14 44  1  0  0  0  0
 15 17  2  0  0  0  0
 15 25  1  0  0  0  0
 16 18  2  0  0  0  0
 16 26  1  0  0  0  0
 17 19  1  0  0  0  0
 17 45  1  0  0  0  0
 18 20  1  0  0  0  0
 18 27  1  0  0  0  0
 19 21  2  0  0  0  0
 19 46  1  0  0  0  0
 20 22  2  0  0  0  0
 20 47  1  0  0  0  0
 21 23  1  0  0  0  0
 21 48  1  0  0  0  0
 22 24  1  0  0  0  0
 22 52  1  0  0  0  0
 23 25  2  0  0  0  0
 23 49  1  0  0  0  0
 24 26  2  0  0  0  0
 24 28  1  0  0  0  0
 25 50  1  0  0  0  0
 26 51  1  0  0  0  0
M  CHG  1  11   1
M  END
