../datasets/input/FXR_1/poses/FXR99/ligand.pdb
 OpenBabel03111910173D

 56 60  0  0  0  0  0  0  0  0999 V2000
   39.3830   14.2970    1.6790 N   0  0  0  0  0  0  0  0  0  0  0  0
   34.5520   17.7890   -0.9290 C   0  0  0  0  0  0  0  0  0  0  0  0
   41.6610   11.6380    5.2170 N   0  0  0  0  0  0  0  0  0  0  0  0
   42.8180   11.5010    1.2550 N   0  0  0  0  0  0  0  0  0  0  0  0
   42.2590   12.6380    0.7600 N   0  0  0  0  0  0  0  0  0  0  0  0
   40.7180   14.4790    1.6920 C   0  0  0  0  0  0  0  0  0  0  0  0
   38.4060   15.2540    1.2740 C   0  0  0  0  0  0  0  0  0  0  0  0
   37.2660   14.8240    0.5560 C   0  0  0  0  0  0  0  0  0  0  0  0
   36.3270   15.7610    0.0760 C   0  0  0  0  0  0  0  0  0  0  0  0
   36.5050   17.1490    0.3130 C   0  0  0  0  0  0  0  0  0  0  0  0
   37.6150   17.5650    1.0650 C   0  0  0  0  0  0  0  0  0  0  0  0
   38.5400   16.6280    1.5580 C   0  0  0  0  0  0  0  0  0  0  0  0
   35.6500   18.1420   -0.1080 O   0  0  0  0  0  0  0  0  0  0  0  0
   41.5290   13.2540    1.7820 C   0  0  0  0  0  0  0  0  0  0  0  0
   41.7280   12.5780    2.9500 C   0  0  0  0  0  0  0  0  0  0  0  0
   41.3490   12.8230    4.3880 C   0  0  0  0  0  0  0  0  0  0  0  0
   42.9510   10.9660    4.9280 C   0  0  0  0  0  0  0  0  0  0  0  0
   43.0360   10.4540    3.4790 C   0  0  0  0  0  0  0  0  0  0  0  0
   42.5370   11.4970    2.5430 C   0  0  0  0  0  0  0  0  0  0  0  0
   42.4740   12.9530   -0.6220 C   0  0  0  0  0  0  0  0  0  0  0  0
   43.3730   12.1580   -1.3770 C   0  0  0  0  0  0  0  0  0  0  0  0
   43.5380   12.3520   -2.7600 C   0  0  0  0  0  0  0  0  0  0  0  0
   42.8290   13.3730   -3.4110 C   0  0  0  0  0  0  0  0  0  0  0  0
   41.9750   14.2060   -2.6700 C   0  0  0  0  0  0  0  0  0  0  0  0
   41.7980   14.0030   -1.2910 C   0  0  0  0  0  0  0  0  0  0  0  0
   42.3710   12.7250    7.6840 C   0  0  0  0  0  0  0  0  0  0  0  0
   42.1190   13.9200    8.3010 C   0  0  0  0  0  0  0  0  0  0  0  0
   43.2730   14.4700    8.9350 C   0  0  0  0  0  0  0  0  0  0  0  0
   44.3970   13.7080    8.7620 C   0  0  0  0  0  0  0  0  0  0  0  0
   41.2720   15.5690    1.5900 O   0  0  0  0  0  0  0  0  0  0  0  0
   39.8840   12.3730    6.9280 O   0  0  0  0  0  0  0  0  0  0  0  0
   41.3500   10.3110    7.3890 O   0  0  0  0  0  0  0  0  0  0  0  0
   41.1760   11.6750    6.8710 S   0  0  0  0  0  0  0  0  0  0  0  0
   44.0490   12.2710    7.8410 S   0  0  0  0  0  0  0  0  0  0  0  0
   39.0790   13.3360    1.7630 H   0  0  0  0  0  0  0  0  0  0  0  0
   37.1090   13.7750    0.3490 H   0  0  0  0  0  0  0  0  0  0  0  0
   35.4750   15.3920   -0.4690 H   0  0  0  0  0  0  0  0  0  0  0  0
   37.7490   18.6140    1.2860 H   0  0  0  0  0  0  0  0  0  0  0  0
   39.3570   16.9850    2.1570 H   0  0  0  0  0  0  0  0  0  0  0  0
   41.8830   13.6820    4.7980 H   0  0  0  0  0  0  0  0  0  0  0  0
   40.2870   13.0520    4.4860 H   0  0  0  0  0  0  0  0  0  0  0  0
   43.1170   10.1370    5.6160 H   0  0  0  0  0  0  0  0  0  0  0  0
   43.7520   11.6800    5.1040 H   0  0  0  0  0  0  0  0  0  0  0  0
   42.4320    9.5560    3.3760 H   0  0  0  0  0  0  0  0  0  0  0  0
   44.0640   10.1860    3.2370 H   0  0  0  0  0  0  0  0  0  0  0  0
   43.9500   11.3760   -0.9080 H   0  0  0  0  0  0  0  0  0  0  0  0
   44.2220   11.7230   -3.3120 H   0  0  0  0  0  0  0  0  0  0  0  0
   42.9660   13.5440   -4.4690 H   0  0  0  0  0  0  0  0  0  0  0  0
   41.4580   15.0130   -3.1540 H   0  0  0  0  0  0  0  0  0  0  0  0
   41.1200   14.6730   -0.7970 H   0  0  0  0  0  0  0  0  0  0  0  0
   41.1520   14.3940    8.3410 H   0  0  0  0  0  0  0  0  0  0  0  0
   43.2350   15.3880    9.4980 H   0  0  0  0  0  0  0  0  0  0  0  0
   45.3960   13.8940    9.1430 H   0  0  0  0  0  0  0  0  0  0  0  0
   34.0100   18.6930   -1.1970 H   0  0  0  0  0  0  0  0  0  0  0  0
   34.8820   17.3270   -1.8570 H   0  0  0  0  0  0  0  0  0  0  0  0
   33.8600   17.1250   -0.4130 H   0  0  0  0  0  0  0  0  0  0  0  0
  1  6  1  0  0  0  0
  1  7  1  0  0  0  0
  1 35  1  0  0  0  0
  2 13  1  0  0  0  0
  2 54  1  0  0  0  0
  2 55  1  0  0  0  0
  2 56  1  0  0  0  0
  3 16  1  0  0  0  0
  3 17  1  0  0  0  0
  3 33  1  0  0  0  0
  4  5  1  0  0  0  0
  4 19  2  0  0  0  0
  5 14  1  0  0  0  0
  5 20  1  0  0  0  0
  6 14  1  0  0  0  0
  6 30  2  0  0  0  0
  7  8  1  0  0  0  0
  7 12  2  0  0  0  0
  8  9  2  0  0  0  0
  8 36  1  0  0  0  0
  9 10  1  0  0  0  0
  9 37  1  0  0  0  0
 10 11  2  0  0  0  0
 10 13  1  0  0  0  0
 11 12  1  0  0  0  0
 11 38  1  0  0  0  0
 12 39  1  0  0  0  0
 14 15  2  0  0  0  0
 15 16  1  0  0  0  0
 15 19  1  0  0  0  0
 16 40  1  0  0  0  0
 16 41  1  0  0  0  0
 17 18  1  0  0  0  0
 17 42  1  0  0  0  0
 17 43  1  0  0  0  0
 18 19  1  0  0  0  0
 18 44  1  0  0  0  0
 18 45  1  0  0  0  0
 20 21  1  0  0  0  0
 20 25  2  0  0  0  0
 21 22  2  0  0  0  0
 21 46  1  0  0  0  0
 22 23  1  0  0  0  0
 22 47  1  0  0  0  0
 23 24  2  0  0  0  0
 23 48  1  0  0  0  0
 24 25  1  0  0  0  0
 24 49  1  0  0  0  0
 25 50  1  0  0  0  0
 26 27  2  0  0  0  0
 26 33  1  0  0  0  0
 26 34  1  0  0  0  0
 27 28  1  0  0  0  0
 27 51  1  0  0  0  0
 28 29  2  0  0  0  0
 28 52  1  0  0  0  0
 29 34  1  0  0  0  0
 29 53  1  0  0  0  0
 31 33  2  0  0  0  0
 32 33  2  0  0  0  0
M  END
$$$$
