../datasets/input/FXR_2/poses/FXR84/ligand.pdb
 OpenBabel02211915413D

 57 61  0  0  0  0  0  0  0  0999 V2000
   40.6690   14.5650    1.6400 N   0  0  0  0  0  0  0  0  0  0  0  0
   44.4510   11.6330    3.0850 N   0  0  0  0  0  0  0  0  0  0  0  0
   35.8340   18.5790   -0.7070 C   0  0  0  0  0  0  0  0  0  0  0  0
   36.7510   17.7060    0.0960 C   0  0  0  0  0  0  0  0  0  0  0  0
   38.1410   17.9210    0.0830 C   0  0  0  0  0  0  0  0  0  0  0  0
   39.0010   17.0890    0.8290 C   0  0  0  0  0  0  0  0  0  0  0  0
   38.4890   15.9570    1.4960 C   0  0  0  0  0  0  0  0  0  0  0  0
   39.3820   14.9700    2.2300 C   0  0  0  0  0  0  0  0  0  0  0  0
   41.6130   13.9660    2.3890 C   0  0  0  0  0  0  0  0  0  0  0  0
   42.7840   13.4580    1.5180 C   0  0  0  0  0  0  0  0  0  0  0  0
   42.7290   11.9310    1.3540 C   0  0  0  0  0  0  0  0  0  0  0  0
   43.1270   11.1970    2.6260 C   0  0  0  0  0  0  0  0  0  0  0  0
   44.6190   13.0900    3.2830 C   0  0  0  0  0  0  0  0  0  0  0  0
   44.1810   13.8740    2.0270 C   0  0  0  0  0  0  0  0  0  0  0  0
   44.1710   10.0660    5.3330 C   0  0  0  0  0  0  0  0  0  0  0  0
   43.5920   11.1140    6.0760 C   0  0  0  0  0  0  0  0  0  0  0  0
   42.6220   10.8480    7.0630 C   0  0  0  0  0  0  0  0  0  0  0  0
   42.2200    9.5270    7.3070 C   0  0  0  0  0  0  0  0  0  0  0  0
   42.7870    8.4790    6.5660 C   0  0  0  0  0  0  0  0  0  0  0  0
   43.7550    8.7360    5.5770 C   0  0  0  0  0  0  0  0  0  0  0  0
   42.3880   14.0840    0.2100 C   0  0  0  0  0  0  0  0  0  0  0  0
   43.1060   14.0440   -0.9990 C   0  0  0  0  0  0  0  0  0  0  0  0
   42.4800   14.5340   -2.1600 C   0  0  0  0  0  0  0  0  0  0  0  0
   41.1570   15.0170   -2.1000 C   0  0  0  0  0  0  0  0  0  0  0  0
   40.4480   15.0400   -0.8820 C   0  0  0  0  0  0  0  0  0  0  0  0
   41.1030   14.6110    0.2880 C   0  0  0  0  0  0  0  0  0  0  0  0
   37.0990   15.7370    1.5040 C   0  0  0  0  0  0  0  0  0  0  0  0
   36.2400   16.6190    0.8300 C   0  0  0  0  0  0  0  0  0  0  0  0
   34.6130   18.3120   -0.7470 O   0  5  0  0  0  0  0  0  0  0  0  0
   36.2760   19.4650   -1.4650 O   0  0  0  0  0  0  0  0  0  0  0  0
   41.5880   13.8470    3.6170 O   0  0  0  0  0  0  0  0  0  0  0  0
   45.5840    9.3360    3.1550 O   0  0  0  0  0  0  0  0  0  0  0  0
   46.4910   11.2200    4.5930 O   0  0  0  0  0  0  0  0  0  0  0  0
   44.2560    7.6860    4.8940 F   0  0  0  0  0  0  0  0  0  0  0  0
   43.4090   14.5140   -3.8180 Br  0  0  0  0  0  0  0  0  0  0  0  0
   45.3470   10.4920    4.0250 S   0  0  0  0  0  0  0  0  0  0  0  0
   38.5300   18.7300   -0.5150 H   0  0  0  0  0  0  0  0  0  0  0  0
   40.0660   17.2650    0.8170 H   0  0  0  0  0  0  0  0  0  0  0  0
   39.5640   15.4030    3.2160 H   0  0  0  0  0  0  0  0  0  0  0  0
   38.8170   14.0560    2.4130 H   0  0  0  0  0  0  0  0  0  0  0  0
   43.3820   11.6150    0.5400 H   0  0  0  0  0  0  0  0  0  0  0  0
   41.7210   11.6260    1.0740 H   0  0  0  0  0  0  0  0  0  0  0  0
   42.3920   11.3530    3.4170 H   0  0  0  0  0  0  0  0  0  0  0  0
   43.1430   10.1290    2.4380 H   0  0  0  0  0  0  0  0  0  0  0  0
   45.6640   13.3140    3.4980 H   0  0  0  0  0  0  0  0  0  0  0  0
   44.0500   13.4140    4.1510 H   0  0  0  0  0  0  0  0  0  0  0  0
   44.2090   14.9460    2.2300 H   0  0  0  0  0  0  0  0  0  0  0  0
   44.9160   13.6960    1.2410 H   0  0  0  0  0  0  0  0  0  0  0  0
   43.9120   12.1240    5.8990 H   0  0  0  0  0  0  0  0  0  0  0  0
   42.1910   11.6530    7.6360 H   0  0  0  0  0  0  0  0  0  0  0  0
   41.4840    9.3150    8.0680 H   0  0  0  0  0  0  0  0  0  0  0  0
   42.4810    7.4660    6.7590 H   0  0  0  0  0  0  0  0  0  0  0  0
   44.0970   13.6270   -1.0400 H   0  0  0  0  0  0  0  0  0  0  0  0
   40.6780   15.3730   -2.9920 H   0  0  0  0  0  0  0  0  0  0  0  0
   39.4190   15.3610   -0.8860 H   0  0  0  0  0  0  0  0  0  0  0  0
   36.6790   14.8830    2.0120 H   0  0  0  0  0  0  0  0  0  0  0  0
   35.1800   16.4340    0.8440 H   0  0  0  0  0  0  0  0  0  0  0  0
  1  8  1  0  0  0  0
  1  9  1  0  0  0  0
  1 26  1  0  0  0  0
  2 12  1  0  0  0  0
  2 13  1  0  0  0  0
  2 36  1  0  0  0  0
  3  4  1  0  0  0  0
  3 29  1  0  0  0  0
  3 30  2  0  0  0  0
  4  5  1  0  0  0  0
  4 28  2  0  0  0  0
  5  6  2  0  0  0  0
  5 37  1  0  0  0  0
  6  7  1  0  0  0  0
  6 38  1  0  0  0  0
  7  8  1  0  0  0  0
  7 27  2  0  0  0  0
  8 39  1  0  0  0  0
  8 40  1  0  0  0  0
  9 10  1  0  0  0  0
  9 31  2  0  0  0  0
 10 11  1  0  0  0  0
 10 14  1  0  0  0  0
 10 21  1  0  0  0  0
 11 12  1  0  0  0  0
 11 41  1  0  0  0  0
 11 42  1  0  0  0  0
 12 43  1  0  0  0  0
 12 44  1  0  0  0  0
 13 14  1  0  0  0  0
 13 45  1  0  0  0  0
 13 46  1  0  0  0  0
 14 47  1  0  0  0  0
 14 48  1  0  0  0  0
 15 16  1  0  0  0  0
 15 20  2  0  0  0  0
 15 36  1  0  0  0  0
 16 17  2  0  0  0  0
 16 49  1  0  0  0  0
 17 18  1  0  0  0  0
 17 50  1  0  0  0  0
 18 19  2  0  0  0  0
 18 51  1  0  0  0  0
 19 20  1  0  0  0  0
 19 52  1  0  0  0  0
 20 34  1  0  0  0  0
 21 22  1  0  0  0  0
 21 26  2  0  0  0  0
 22 23  2  0  0  0  0
 22 53  1  0  0  0  0
 23 24  1  0  0  0  0
 23 35  1  0  0  0  0
 24 25  2  0  0  0  0
 24 54  1  0  0  0  0
 25 26  1  0  0  0  0
 25 55  1  0  0  0  0
 27 28  1  0  0  0  0
 27 56  1  0  0  0  0
 28 57  1  0  0  0  0
 32 36  2  0  0  0  0
 33 36  2  0  0  0  0
M  CHG  1  29  -1
M  END
