../datasets/input/HSP90_3/poses/HSP90_19/ligand.pdb
 OpenBabel03111910153D

 28 31  0  0  0  0  0  0  0  0999 V2000
   -0.9650   13.0480   22.2360 O   0  0  0  0  0  0  0  0  0  0  0  0
   -1.0710   12.2130   23.3120 C   0  0  0  0  0  0  0  0  0  0  0  0
   -2.3250   12.0260   23.9260 C   0  0  0  0  0  0  0  0  0  0  0  0
   -2.4550   11.1700   25.0380 C   0  0  0  0  0  0  0  0  0  0  0  0
   -3.6810   11.0360   25.6270 O   0  0  0  0  0  0  0  0  0  0  0  0
   -1.3200   10.4870   25.5410 C   0  0  0  0  0  0  0  0  0  0  0  0
   -0.0640   10.6830   24.9230 C   0  0  0  0  0  0  0  0  0  0  0  0
    0.0630   11.5410   23.8140 C   0  0  0  0  0  0  0  0  0  0  0  0
    1.6130   11.7530   23.0820 Cl  0  0  0  0  0  0  0  0  0  0  0  0
   -1.4230    9.6070   26.6540 N   0  0  0  0  0  0  0  0  0  0  0  0
   -2.1160    9.8030   27.8030 C   0  0  0  0  0  0  0  0  0  0  0  0
   -2.6990   10.8280   28.1510 O   0  0  0  0  0  0  0  0  0  0  0  0
   -2.0870    8.6460   28.4930 N   0  0  0  0  0  0  0  0  0  0  0  0
   -1.4050    7.6730   27.7610 C   0  0  0  0  0  0  0  0  0  0  0  0
   -1.1370    6.3280   28.0490 C   0  0  0  0  0  0  0  0  0  0  0  0
   -0.4070    5.5970   27.0830 C   0  0  0  0  0  0  0  0  0  0  0  0
    0.0420    6.1960   25.8690 C   0  0  0  0  0  0  0  0  0  0  0  0
   -0.2540    7.5630   25.6230 C   0  0  0  0  0  0  0  0  0  0  0  0
   -0.9880    8.2710   26.5910 C   0  0  0  0  0  0  0  0  0  0  0  0
    0.8060    5.4070   24.8810 C   0  0  0  0  0  0  0  0  0  0  0  0
    1.9480    4.6680   25.2690 C   0  0  0  0  0  0  0  0  0  0  0  0
    2.6790    3.9150   24.3290 C   0  0  0  0  0  0  0  0  0  0  0  0
    2.2780    3.8910   22.9820 C   0  0  0  0  0  0  0  0  0  0  0  0
    1.1450    4.6210   22.5780 C   0  0  0  0  0  0  0  0  0  0  0  0
    0.4170    5.3720   23.5220 C   0  0  0  0  0  0  0  0  0  0  0  0
   -0.1330   12.9860   21.7930 H   0  0  0  0  0  0  0  0  0  0  0  0
   -4.3920   11.3560   25.0940 H   0  0  0  0  0  0  0  0  0  0  0  0
   -2.5240    8.4730   29.3870 H   0  0  0  0  0  0  0  0  0  0  0  0
  1  2  1  0  0  0  0
  2  8  2  0  0  0  0
  2  3  1  0  0  0  0
  3  4  2  0  0  0  0
  4  6  1  0  0  0  0
  4  5  1  0  0  0  0
  6 10  1  0  0  0  0
  7  6  2  0  0  0  0
  8  7  1  0  0  0  0
  9  8  1  0  0  0  0
 10 11  1  0  0  0  0
 11 12  2  0  0  0  0
 11 13  1  0  0  0  0
 13 28  1  0  0  0  0
 14 15  1  0  0  0  0
 14 13  1  0  0  0  0
 16 15  2  0  0  0  0
 17 16  1  0  0  0  0
 18 17  2  0  0  0  0
 18 19  1  0  0  0  0
 19 10  1  0  0  0  0
 19 14  2  0  0  0  0
 20 21  1  0  0  0  0
 20 17  1  0  0  0  0
 22 21  2  0  0  0  0
 23 22  1  0  0  0  0
 24 23  2  0  0  0  0
 24 25  1  0  0  0  0
 25 20  2  0  0  0  0
 26  1  1  0  0  0  0
 27  5  1  0  0  0  0
M  END
$$$$
