../datasets/input/ACK1/poses/ACK1_5/ligand.pdb
 OpenBabel02211915413D

 49 53  0  0  1  0  0  0  0  0999 V2000
   52.3650   48.4800   48.2420 C   0  0  0  0  0  0  0  0  0  0  0  0
   52.8590   47.7300   48.8510 H   0  0  0  0  0  0  0  0  0  0  0  0
   53.1290   49.2930   47.3830 C   0  0  0  0  0  0  0  0  0  0  0  0
   54.2060   49.1780   47.3700 H   0  0  0  0  0  0  0  0  0  0  0  0
   50.9910   48.6290   48.2790 C   0  0  0  0  0  0  0  0  0  0  0  0
   50.3920   47.9950   48.9390 H   0  0  0  0  0  0  0  0  0  0  0  0
   50.3630   49.5750   47.4730 C   0  0  0  0  0  0  0  0  0  0  0  0
   49.2810   49.6920   47.5140 H   0  0  0  0  0  0  0  0  0  0  0  0
   51.1150   50.3600   46.6060 C   0  0  0  0  0  0  0  0  0  0  0  0
   50.6220   51.0790   45.9620 H   0  0  0  0  0  0  0  0  0  0  0  0
   52.5150   50.2120   46.5460 C   0  0  0  0  0  0  0  0  0  0  0  0
   53.2920   50.9860   45.6100 C   0  0  1  0  0  0  0  0  0  0  0  0
   54.1970   50.5100   44.6820 N   0  3  0  0  0  0  0  0  0  0  0  0
   54.4060   49.2430   44.1910 C   0  0  2  0  0  0  0  0  0  0  0  0
   53.9030   48.1770   44.8460 N   0  0  0  0  0  0  0  0  0  0  0  0
   53.2660   48.3470   45.6130 H   0  0  0  0  0  0  0  0  0  0  0  0
   54.1410   46.7790   44.4510 C   0  0  0  0  0  0  0  0  0  0  0  0
   53.1410   45.7880   45.0940 C   0  0  1  0  0  0  0  0  0  0  0  0
   53.4280   44.7630   44.8440 H   0  0  0  0  0  0  0  0  0  0  0  0
   53.1320   45.9170   46.5310 O   0  0  0  0  0  0  0  0  0  0  0  0
   51.9310   45.2750   47.0190 C   0  0  0  0  0  0  0  0  0  0  0  0
   50.8730   45.5550   45.9410 C   0  0  0  0  0  0  0  0  0  0  0  0
   51.6670   46.0150   44.7100 C   0  0  0  0  0  0  0  0  0  0  0  0
   51.4700   47.0680   44.5200 H   0  0  0  0  0  0  0  0  0  0  0  0
   51.3870   45.4450   43.8240 H   0  0  0  0  0  0  0  0  0  0  0  0
   50.2990   44.6500   45.7320 H   0  0  0  0  0  0  0  0  0  0  0  0
   50.1830   46.3360   46.2690 H   0  0  0  0  0  0  0  0  0  0  0  0
   52.1110   44.1990   47.1030 H   0  0  0  0  0  0  0  0  0  0  0  0
   51.6360   45.6880   47.9850 H   0  0  0  0  0  0  0  0  0  0  0  0
   55.1540   46.4910   44.7450 H   0  0  0  0  0  0  0  0  0  0  0  0
   54.0740   46.6880   43.3640 H   0  0  0  0  0  0  0  0  0  0  0  0
   55.1810   49.0270   43.1330 N   0  0  0  0  0  0  0  0  0  0  0  0
   55.5900   50.1290   42.3900 C   0  0  0  0  0  0  0  0  0  0  0  0
   56.1980   49.9300   41.5210 H   0  0  0  0  0  0  0  0  0  0  0  0
   55.1910   51.3750   42.6580 N   0  0  0  0  0  0  0  0  0  0  0  0
   54.4730   51.5000   43.8180 C   0  0  0  0  0  0  0  0  0  0  0  0
   53.9330   52.6490   44.1980 N   0  0  0  0  0  0  0  0  0  0  0  0
   53.1840   52.3600   45.3320 C   0  0  0  0  0  0  0  0  0  0  0  0
   52.5230   53.3740   46.1340 C   0  0  0  0  0  0  0  0  0  0  0  0
   52.0330   53.1660   47.4430 C   0  0  0  0  0  0  0  0  0  0  0  0
   52.1370   52.2150   47.9420 H   0  0  0  0  0  0  0  0  0  0  0  0
   51.4570   54.2050   48.1680 C   0  0  0  0  0  0  0  0  0  0  0  0
   51.0960   54.0110   49.1780 H   0  0  0  0  0  0  0  0  0  0  0  0
   51.3710   55.4780   47.6200 C   0  0  0  0  0  0  0  0  0  0  0  0
   50.9210   56.2890   48.2010 H   0  0  0  0  0  0  0  0  0  0  0  0
   51.8670   55.7230   46.3560 C   0  0  0  0  0  0  0  0  0  0  0  0
   51.8090   56.7120   45.9200 H   0  0  0  0  0  0  0  0  0  0  0  0
   52.4490   54.6680   45.6200 C   0  0  0  0  0  0  0  0  0  0  0  0
   52.8340   54.8910   44.6330 H   0  0  0  0  0  0  0  0  0  0  0  0
  1  2  1  0  0  0  0
  1  3  2  0  0  0  0
  1  5  1  0  0  0  0
  3  4  1  0  0  0  0
  3 11  1  0  0  0  0
  5  6  1  0  0  0  0
  5  7  2  0  0  0  0
  7  8  1  0  0  0  0
  7  9  1  0  0  0  0
  9 10  1  0  0  0  0
  9 11  2  0  0  0  0
 12 11  1  6  0  0  0
 12 13  1  0  0  0  0
 12 38  1  0  0  0  0
 13 14  1  0  0  0  0
 13 36  1  0  0  0  0
 14 15  1  1  0  0  0
 14 32  1  0  0  0  0
 15 16  1  0  0  0  0
 15 17  1  0  0  0  0
 17 18  1  0  0  0  0
 17 30  1  0  0  0  0
 17 31  1  0  0  0  0
 18 19  1  6  0  0  0
 18 20  1  0  0  0  0
 18 23  1  0  0  0  0
 20 21  1  0  0  0  0
 21 22  1  0  0  0  0
 21 28  1  0  0  0  0
 21 29  1  0  0  0  0
 22 23  1  0  0  0  0
 22 26  1  0  0  0  0
 22 27  1  0  0  0  0
 23 24  1  0  0  0  0
 23 25  1  0  0  0  0
 32 33  2  0  0  0  0
 33 34  1  0  0  0  0
 33 35  1  0  0  0  0
 35 36  2  0  0  0  0
 36 37  1  0  0  0  0
 37 38  2  0  0  0  0
 38 39  1  0  0  0  0
 39 40  2  0  0  0  0
 39 48  1  0  0  0  0
 40 41  1  0  0  0  0
 40 42  1  0  0  0  0
 42 43  1  0  0  0  0
 42 44  2  0  0  0  0
 44 45  1  0  0  0  0
 44 46  1  0  0  0  0
 46 47  1  0  0  0  0
 46 48  2  0  0  0  0
 48 49  1  0  0  0  0
M  CHG  1  13   1
M  END
