@<TRIPOS>MOLECULE
ligand_5.pdb
49 53 1 0 0
SMALL
AMBER ff14SB


@<TRIPOS>ATOM
      1 C18        52.3650   48.4800   48.2420 C.ar      1 LIG   -0.1345
      2 H14        52.8590   47.7300   48.8510 H         1 LIG    0.1390
      3 C19        53.1290   49.2930   47.3830 C.ar      1 LIG   -0.1095
      4 H15        54.2060   49.1780   47.3700 H         1 LIG    0.1465
      5 C17        50.9910   48.6290   48.2790 C.ar      1 LIG   -0.1250
      6 H13        50.3920   47.9950   48.9390 H         1 LIG    0.1350
      7 C16        50.3630   49.5750   47.4730 C.ar      1 LIG   -0.1345
      8 H12        49.2810   49.6920   47.5140 H         1 LIG    0.1390
      9 C15        51.1150   50.3600   46.6060 C.ar      1 LIG   -0.1095
     10 H11        50.6220   51.0790   45.9620 H         1 LIG    0.1465
     11 C2         52.5150   50.2120   46.5460 C.ar      1 LIG   -0.1129
     12 C1         53.2920   50.9860   45.6100 C.ar      1 LIG   -0.0061
     13 N1         54.1970   50.5100   44.6820 N.ar      1 LIG   -0.3500
     14 C5         54.4060   49.2430   44.1910 C.ar      1 LIG    0.6690
     15 N3         53.9030   48.1770   44.8460 N.pl3     1 LIG   -0.3759
     16 H1         53.2660   48.3470   45.6130 H         1 LIG    0.2957
     17 C6         54.1410   46.7790   44.4510 C.3       1 LIG    0.0213
     18 C7         53.1410   45.7880   45.0940 C.3       1 LIG    0.1281
     19 H2         53.4280   44.7630   44.8440 H         1 LIG    0.0637
     20 O1         53.1320   45.9170   46.5310 O.3       1 LIG   -0.4316
     21 C22        51.9310   45.2750   47.0190 C.3       1 LIG    0.1204
     22 C21        50.8730   45.5550   45.9410 C.3       1 LIG   -0.1074
     23 C20        51.6670   46.0150   44.7100 C.3       1 LIG   -0.1054
     24 H16        51.4700   47.0680   44.5200 H         1 LIG    0.0622
     25 H21        51.3870   45.4450   43.8240 H         1 LIG    0.0622
     26 H17        50.2990   44.6500   45.7320 H         1 LIG    0.0562
     27 H18        50.1830   46.3360   46.2690 H         1 LIG    0.0562
     28 H19        52.1110   44.1990   47.1030 H         1 LIG    0.0512
     29 H20        51.6360   45.6880   47.9850 H         1 LIG    0.0512
     30 H3         55.1540   46.4910   44.7450 H         1 LIG    0.0677
     31 H4         54.0740   46.6880   43.3640 H         1 LIG    0.0677
     32 N4         55.1810   49.0270   43.1330 N.ar      1 LIG   -0.8040
     33 C8         55.5900   50.1290   42.3900 C.ar      1 LIG    0.6739
     34 H5         56.1980   49.9300   41.5210 H         1 LIG    0.0621
     35 N5         55.1910   51.3750   42.6580 N.ar      1 LIG   -0.6690
     36 C9         54.4730   51.5000   43.8180 C.ar      1 LIG    0.6755
     37 N2         53.9330   52.6490   44.1980 N.ar      1 LIG   -0.3740
     38 C3         53.1840   52.3600   45.3320 C.ar      1 LIG    0.0048
     39 C4         52.5230   53.3740   46.1340 C.ar      1 LIG   -0.0288
     40 C10        52.0330   53.1660   47.4430 C.ar      1 LIG   -0.1020
     41 H6         52.1370   52.2150   47.9420 H         1 LIG    0.1445
     42 C11        51.4570   54.2050   48.1680 C.ar      1 LIG   -0.1380
     43 H7         51.0960   54.0110   49.1780 H         1 LIG    0.1320
     44 C12        51.3710   55.4780   47.6200 C.ar      1 LIG   -0.1220
     45 H8         50.9210   56.2890   48.2010 H         1 LIG    0.1300
     46 C13        51.8670   55.7230   46.3560 C.ar      1 LIG   -0.1380
     47 H9         51.8090   56.7120   45.9200 H         1 LIG    0.1320
     48 C14        52.4490   54.6680   45.6200 C.ar      1 LIG   -0.1020
     49 H10        52.8340   54.8910   44.6330 H         1 LIG    0.1445
@<TRIPOS>BOND
     1    1    2 1
     2    1    3 ar
     3    1    5 ar
     4    3    4 1
     5    3   11 ar
     6    5    6 1
     7    5    7 ar
     8    7    8 1
     9    7    9 ar
    10    9   10 1
    11    9   11 ar
    12   11   12 1
    13   12   13 ar
    14   12   38 ar
    15   13   14 ar
    16   13   36 ar
    17   14   15 1
    18   14   32 ar
    19   15   16 1
    20   15   17 1
    21   17   18 1
    22   17   30 1
    23   17   31 1
    24   18   19 1
    25   18   20 1
    26   18   23 1
    27   20   21 1
    28   21   22 1
    29   21   28 1
    30   21   29 1
    31   22   23 1
    32   22   26 1
    33   22   27 1
    34   23   24 1
    35   23   25 1
    36   32   33 ar
    37   33   34 1
    38   33   35 ar
    39   35   36 ar
    40   36   37 ar
    41   37   38 ar
    42   38   39 1
    43   39   40 ar
    44   39   48 ar
    45   40   41 1
    46   40   42 ar
    47   42   43 1
    48   42   44 ar
    49   44   45 1
    50   44   46 ar
    51   46   47 1
    52   46   48 ar
    53   48   49 1
@<TRIPOS>SUBSTRUCTURE
     1 LIG     1 RESIDUE           4 A     LIG     0 ROOT
