../datasets/input/THROMBIN/poses/3G/ligand.pdb
 OpenBabel03111910183D

 49 51  0  0  1  0  0  0  0  0999 V2000
   38.4190   20.9070   39.7470 C   0  0  0  0  0  0  0  0  0  0  0  0
   38.1060   22.2030   39.1160 C   0  0  0  0  0  0  0  0  0  0  0  0
   37.1590   22.8200   39.4990 O   0  0  0  0  0  0  0  0  0  0  0  0
   38.9180   22.7750   38.1790 N   0  0  0  0  0  0  0  0  0  0  0  0
   38.6120   24.1090   37.6150 C   0  0  2  0  0  0  0  0  0  0  0  0
   37.1830   24.2870   36.9890 C   0  0  0  0  0  0  0  0  0  0  0  0
   36.6380   23.4270   36.2440 O   0  0  0  0  0  0  0  0  0  0  0  0
   39.5900   24.1900   36.5010 C   0  0  0  0  0  0  0  0  0  0  0  0
   40.7500   23.2250   36.8430 C   0  0  0  0  0  0  0  0  0  0  0  0
   39.9680   22.1360   37.4700 C   0  0  0  0  0  0  0  0  0  0  0  0
   36.5100   25.3970   37.2860 N   0  0  0  0  0  0  0  0  0  0  0  0
   35.0840   25.5540   36.9070 C   0  0  0  0  0  0  0  0  0  0  0  0
   34.1380   25.5540   38.1120 C   0  0  0  0  0  0  0  0  0  0  0  0
   33.1680   24.5500   38.2000 C   0  0  0  0  0  0  0  0  0  0  0  0
   32.3070   24.5480   39.2860 C   0  0  0  0  0  0  0  0  0  0  0  0
   32.3960   25.6070   40.2290 C   0  0  0  0  0  0  0  0  0  0  0  0
   33.3150   26.6490   40.0920 C   0  0  0  0  0  0  0  0  0  0  0  0
   34.1810   26.6030   39.0220 C   0  0  0  0  0  0  0  0  0  0  0  0
   33.2050   28.0470   41.1060 C   0  0  0  0  0  0  0  0  0  0  0  0
   39.1160   21.0770   41.1330 C   0  0  0  0  0  0  0  0  0  0  0  0
   40.3550   22.0320   41.0230 C   0  0  0  0  0  0  0  0  0  0  0  0
   41.3370   21.3780   42.0620 C   0  0  0  0  0  0  0  0  0  0  0  0
   41.0790   19.8940   41.8430 C   0  0  0  0  0  0  0  0  0  0  0  0
   39.6030   19.7240   41.6420 C   0  0  0  0  0  0  0  0  0  0  0  0
   39.0620   20.3170   39.0910 H   0  0  0  0  0  0  0  0  0  0  0  0
   38.8490   24.8680   38.3640 H   0  0  0  0  0  0  0  0  0  0  0  0
   39.1730   23.9990   35.5100 H   0  0  0  0  0  0  0  0  0  0  0  0
   39.8820   25.2400   36.5770 H   0  0  0  0  0  0  0  0  0  0  0  0
   41.2370   22.9320   35.9110 H   0  0  0  0  0  0  0  0  0  0  0  0
   41.4370   23.6150   37.5980 H   0  0  0  0  0  0  0  0  0  0  0  0
   40.7090   21.6390   38.1020 H   0  0  0  0  0  0  0  0  0  0  0  0
   39.4020   21.4640   36.8200 H   0  0  0  0  0  0  0  0  0  0  0  0
   36.9170   25.9590   38.0190 H   0  0  0  0  0  0  0  0  0  0  0  0
   34.9640   26.5140   36.4000 H   0  0  0  0  0  0  0  0  0  0  0  0
   34.6880   24.8700   36.1510 H   0  0  0  0  0  0  0  0  0  0  0  0
   33.1870   23.8300   37.3860 H   0  0  0  0  0  0  0  0  0  0  0  0
   31.6140   23.7240   39.4280 H   0  0  0  0  0  0  0  0  0  0  0  0
   31.5920   25.6160   40.9610 H   0  0  0  0  0  0  0  0  0  0  0  0
   34.9360   27.3550   38.8060 H   0  0  0  0  0  0  0  0  0  0  0  0
   37.4350   20.4400   39.8220 H   0  0  0  0  0  0  0  0  0  0  0  0
   38.4020   21.4530   41.8680 H   0  0  0  0  0  0  0  0  0  0  0  0
   40.1720   23.0940   41.1970 H   0  0  0  0  0  0  0  0  0  0  0  0
   40.8310   21.8230   40.0630 H   0  0  0  0  0  0  0  0  0  0  0  0
   42.3770   21.6970   41.9740 H   0  0  0  0  0  0  0  0  0  0  0  0
   41.0480   21.5590   43.1000 H   0  0  0  0  0  0  0  0  0  0  0  0
   41.5740   19.7240   40.8840 H   0  0  0  0  0  0  0  0  0  0  0  0
   41.4350   19.1770   42.5860 H   0  0  0  0  0  0  0  0  0  0  0  0
   39.0540   19.4330   42.5400 H   0  0  0  0  0  0  0  0  0  0  0  0
   39.3440   18.9060   40.9670 H   0  0  0  0  0  0  0  0  0  0  0  0
  1 25  1  0  0  0  0
  1  2  1  0  0  0  0
  1 40  1  0  0  0  0
  1 20  1  0  0  0  0
  2  4  1  0  0  0  0
  2  3  2  0  0  0  0
  4 10  1  0  0  0  0
  4  5  1  0  0  0  0
  5  8  1  0  0  0  0
  5  6  1  0  0  0  0
  5 26  1  1  0  0  0
  6  7  2  0  0  0  0
  6 11  1  0  0  0  0
  8 27  1  0  0  0  0
  8 28  1  0  0  0  0
  8  9  1  0  0  0  0
  9 29  1  0  0  0  0
  9 10  1  0  0  0  0
  9 30  1  0  0  0  0
 10 32  1  0  0  0  0
 10 31  1  0  0  0  0
 11 12  1  0  0  0  0
 11 33  1  0  0  0  0
 12 35  1  0  0  0  0
 12 34  1  0  0  0  0
 12 13  1  0  0  0  0
 13 14  2  0  0  0  0
 13 18  1  0  0  0  0
 14 36  1  0  0  0  0
 14 15  1  0  0  0  0
 15 37  1  0  0  0  0
 15 16  2  0  0  0  0
 16 17  1  0  0  0  0
 16 38  1  0  0  0  0
 17 18  2  0  0  0  0
 17 19  1  0  0  0  0
 18 39  1  0  0  0  0
 20 21  1  0  0  0  0
 20 24  1  0  0  0  0
 20 41  1  0  0  0  0
 21 43  1  0  0  0  0
 21 42  1  0  0  0  0
 21 22  1  0  0  0  0
 22 23  1  0  0  0  0
 22 44  1  0  0  0  0
 22 45  1  0  0  0  0
 23 46  1  0  0  0  0
 23 24  1  0  0  0  0
 23 47  1  0  0  0  0
 24 49  1  0  0  0  0
 24 48  1  0  0  0  0
M  END
$$$$
