../datasets/input/FXR_1/poses/FXR49/ligand.pdb
 OpenBabel03111910173D

 57 61  0  0  0  0  0  0  0  0999 V2000
   39.4100   14.3580    1.6400 N   0  0  0  0  0  0  0  0  0  0  0  0
   34.8010   18.3320   -1.0730 C   0  0  0  0  0  0  0  0  0  0  0  0
   41.6690   11.6300    5.2640 N   0  0  0  0  0  0  0  0  0  0  0  0
   42.7840   11.4550    1.2880 N   0  0  0  0  0  0  0  0  0  0  0  0
   42.2340   12.5960    0.7920 N   0  0  0  0  0  0  0  0  0  0  0  0
   40.7540   14.4780    1.7240 C   0  0  0  0  0  0  0  0  0  0  0  0
   38.5060   15.3920    1.2540 C   0  0  0  0  0  0  0  0  0  0  0  0
   37.3820   15.0970    0.4500 C   0  0  0  0  0  0  0  0  0  0  0  0
   36.5490   16.1380   -0.0230 C   0  0  0  0  0  0  0  0  0  0  0  0
   36.8250   17.4930    0.2950 C   0  0  0  0  0  0  0  0  0  0  0  0
   37.9180   17.7710    1.1370 C   0  0  0  0  0  0  0  0  0  0  0  0
   38.7150   16.7300    1.6420 C   0  0  0  0  0  0  0  0  0  0  0  0
   36.0030   18.6420   -0.1900 C   0  0  0  0  0  0  0  0  0  0  0  0
   41.5130   13.2220    1.8140 C   0  0  0  0  0  0  0  0  0  0  0  0
   41.7100   12.5490    2.9850 C   0  0  0  0  0  0  0  0  0  0  0  0
   41.3470   12.8070    4.4260 C   0  0  0  0  0  0  0  0  0  0  0  0
   42.9530   10.9510    4.9650 C   0  0  0  0  0  0  0  0  0  0  0  0
   43.0140   10.4250    3.5200 C   0  0  0  0  0  0  0  0  0  0  0  0
   42.5070   11.4610    2.5790 C   0  0  0  0  0  0  0  0  0  0  0  0
   42.4560   12.9160   -0.5860 C   0  0  0  0  0  0  0  0  0  0  0  0
   43.3710   12.1330   -1.3350 C   0  0  0  0  0  0  0  0  0  0  0  0
   43.5500   12.3350   -2.7150 C   0  0  0  0  0  0  0  0  0  0  0  0
   42.8360   13.3510   -3.3700 C   0  0  0  0  0  0  0  0  0  0  0  0
   41.9630   14.1700   -2.6370 C   0  0  0  0  0  0  0  0  0  0  0  0
   41.7740   13.9600   -1.2600 C   0  0  0  0  0  0  0  0  0  0  0  0
   42.3680   12.7450    7.7240 C   0  0  0  0  0  0  0  0  0  0  0  0
   42.0870   13.9270    8.3570 C   0  0  0  0  0  0  0  0  0  0  0  0
   43.2310   14.5070    8.9800 C   0  0  0  0  0  0  0  0  0  0  0  0
   44.3770   13.7830    8.7810 C   0  0  0  0  0  0  0  0  0  0  0  0
   41.3610   15.5430    1.6830 O   0  0  0  0  0  0  0  0  0  0  0  0
   36.2320   19.8190    0.0950 O   0  0  0  0  0  0  0  0  0  0  0  0
   39.8880   12.3370    6.9810 O   0  0  0  0  0  0  0  0  0  0  0  0
   41.3950   10.3090    7.4490 O   0  0  0  0  0  0  0  0  0  0  0  0
   41.1920   11.6670    6.9220 S   0  0  0  0  0  0  0  0  0  0  0  0
   44.0600   12.3430    7.8540 S   0  0  0  0  0  0  0  0  0  0  0  0
   39.0560   13.4130    1.6640 H   0  0  0  0  0  0  0  0  0  0  0  0
   37.1590   14.0780    0.1700 H   0  0  0  0  0  0  0  0  0  0  0  0
   35.7080   15.8770   -0.6450 H   0  0  0  0  0  0  0  0  0  0  0  0
   38.1410   18.7900    1.4170 H   0  0  0  0  0  0  0  0  0  0  0  0
   39.5020   16.9660    2.3310 H   0  0  0  0  0  0  0  0  0  0  0  0
   41.8820   13.6730    4.8220 H   0  0  0  0  0  0  0  0  0  0  0  0
   40.2850   13.0330    4.5310 H   0  0  0  0  0  0  0  0  0  0  0  0
   43.1210   10.1260    5.6580 H   0  0  0  0  0  0  0  0  0  0  0  0
   43.7590   11.6600    5.1300 H   0  0  0  0  0  0  0  0  0  0  0  0
   42.4090    9.5270    3.4340 H   0  0  0  0  0  0  0  0  0  0  0  0
   44.0390   10.1550    3.2700 H   0  0  0  0  0  0  0  0  0  0  0  0
   43.9500   11.3540   -0.8600 H   0  0  0  0  0  0  0  0  0  0  0  0
   44.2480   11.7160   -3.2610 H   0  0  0  0  0  0  0  0  0  0  0  0
   42.9840   13.5260   -4.4250 H   0  0  0  0  0  0  0  0  0  0  0  0
   41.4370   14.9700   -3.1250 H   0  0  0  0  0  0  0  0  0  0  0  0
   41.0810   14.6190   -0.7710 H   0  0  0  0  0  0  0  0  0  0  0  0
   41.1040   14.3670    8.4150 H   0  0  0  0  0  0  0  0  0  0  0  0
   43.1720   15.4180    9.5540 H   0  0  0  0  0  0  0  0  0  0  0  0
   45.3760   13.9950    9.1480 H   0  0  0  0  0  0  0  0  0  0  0  0
   34.3510   19.2630   -1.4170 H   0  0  0  0  0  0  0  0  0  0  0  0
   34.0530   17.7730   -0.5140 H   0  0  0  0  0  0  0  0  0  0  0  0
   35.0980   17.7580   -1.9480 H   0  0  0  0  0  0  0  0  0  0  0  0
  1  6  1  0  0  0  0
  1  7  1  0  0  0  0
  1 36  1  0  0  0  0
  2 13  1  0  0  0  0
  2 55  1  0  0  0  0
  2 56  1  0  0  0  0
  2 57  1  0  0  0  0
  3 16  1  0  0  0  0
  3 17  1  0  0  0  0
  3 34  1  0  0  0  0
  4  5  1  0  0  0  0
  4 19  2  0  0  0  0
  5 14  1  0  0  0  0
  5 20  1  0  0  0  0
  6 14  1  0  0  0  0
  6 30  2  0  0  0  0
  7  8  1  0  0  0  0
  7 12  2  0  0  0  0
  8  9  2  0  0  0  0
  8 37  1  0  0  0  0
  9 10  1  0  0  0  0
  9 38  1  0  0  0  0
 10 11  2  0  0  0  0
 10 13  1  0  0  0  0
 11 12  1  0  0  0  0
 11 39  1  0  0  0  0
 12 40  1  0  0  0  0
 13 31  2  0  0  0  0
 14 15  2  0  0  0  0
 15 16  1  0  0  0  0
 15 19  1  0  0  0  0
 16 41  1  0  0  0  0
 16 42  1  0  0  0  0
 17 18  1  0  0  0  0
 17 43  1  0  0  0  0
 17 44  1  0  0  0  0
 18 19  1  0  0  0  0
 18 45  1  0  0  0  0
 18 46  1  0  0  0  0
 20 21  1  0  0  0  0
 20 25  2  0  0  0  0
 21 22  2  0  0  0  0
 21 47  1  0  0  0  0
 22 23  1  0  0  0  0
 22 48  1  0  0  0  0
 23 24  2  0  0  0  0
 23 49  1  0  0  0  0
 24 25  1  0  0  0  0
 24 50  1  0  0  0  0
 25 51  1  0  0  0  0
 26 27  2  0  0  0  0
 26 34  1  0  0  0  0
 26 35  1  0  0  0  0
 27 28  1  0  0  0  0
 27 52  1  0  0  0  0
 28 29  2  0  0  0  0
 28 53  1  0  0  0  0
 29 35  1  0  0  0  0
 29 54  1  0  0  0  0
 32 34  2  0  0  0  0
 33 34  2  0  0  0  0
M  END
$$$$
