# Molecule written by the XED library from Cresset
@<TRIPOS>MOLECULE
MK2
    31     32      1
SMALL
USER_CHARGES
@<TRIPOS>ATOM
      1  C          39.0108    7.6228   15.8168 C.2       1 LIG1        0.2884
      2  O          39.7628    6.6642   15.9917 O.2       1 LIG1       -0.4217
      3  N          39.3847    8.9129   15.9014 N.am      1 LIG1       -0.2139
      4  C          40.6707    9.4518   16.1789 C.ar      1 LIG1        0.0699
      5  C          41.6984    8.7040   16.7854 C.ar      1 LIG1       -0.1009
      6  C          42.9339    9.3143   17.0711 C.ar      1 LIG1       -0.0866
      7  C          43.1409   10.6700   16.7517 C.ar      1 LIG1       -0.1041
      8  C          42.1184   11.4321   16.1450 C.ar      1 LIG1       -0.0071
      9  C          42.3323   12.8382   15.8153 C.ar      1 LIG1        0.0707
     10  S          43.1854   13.8564   16.9461 S.3       1 LIG1       -0.0976
     11  C          43.0171   15.2586   15.9045 C.ar      1 LIG1        0.0496
     12  C          43.6040   16.5277   16.3926 C.2       1 LIG1        0.2791
     13  O          43.5028   17.5484   15.6779 O.co2     1 LIG1       -0.2548
     14  O          44.1829   16.5487   17.5021 O.2       1 LIG1       -0.2548
     15  C          42.3335   14.9436   14.7511 C.ar      1 LIG1        0.1207
     16  O          42.0633   15.8258   13.7651 O.3       1 LIG1       -0.1783
     17  C          40.9041   16.6163   13.9937 C.3       1 LIG1        0.0711
     18  C          40.4216   17.2724   12.6980 C.2       1 LIG1        0.2632
     19  O          41.2809   17.6281   11.8606 O.co2     1 LIG1       -0.2388
     20  O          39.1845   17.3897   12.5564 O.2       1 LIG1       -0.2388
     21  C          41.9618   13.5670   14.7145 C.ar      1 LIG1        0.0741
     22  BR         40.9941   12.8290   13.2469 Br        1 LIG1       -0.0777
     23  C          40.8827   10.8086   15.8614 C.ar      1 LIG1       -0.0923
     24  H          38.6704    9.5921   15.6841 H         1 LIG1        0.2054
     25  H          41.5610    7.6677   17.0527 H         1 LIG1        0.0919
     26  H          43.7202    8.7433   17.5419 H         1 LIG1        0.0906
     27  H          44.0905   11.1286   16.9871 H         1 LIG1        0.0910
     28  H          40.0888   16.0102   14.3929 H         1 LIG1        0.0707
     29  H          41.1295   17.3893   14.7294 H         1 LIG1        0.0707
     30  H          40.0923   11.3709   15.3855 H         1 LIG1        0.0923
     31  H          38.0586    7.3955   15.5962 H         1 LIG1        0.1180
@<TRIPOS>BOND
     1      2      1 2 
     2      3      1 am
     3      4      3 1 
     4      5      4 ar
     5      6      5 ar
     6      7      6 ar
     7      8      7 ar
     8      9      8 1 
     9     10      9 ar
    10     11     10 ar
    11     12     11 1 
    12     13     12 1 
    13     14     12 2 
    14     15     11 ar
    15     16     15 1 
    16     17     16 1 
    17     18     17 1 
    18     19     18 1 
    19     20     18 2 
    20     21      9 ar
    21     21     15 ar
    22     22     21 1 
    23     23      4 ar
    24     23      8 ar
    25      1     31 1 
    26     24      3 1 
    27     25      5 1 
    28     26      6 1 
    29     27      7 1 
    30     28     17 1 
    31     29     17 1 
    32     30     23 1 
@<TRIPOS>SUBSTRUCTURE
     1 LIG1         1 MOLECULE          1 A
