../datasets/input/HSP90_2/poses/HSP90_105/ligand.pdb
 OpenBabel02211915413D

 20 22  0  0  0  0  0  0  0  0999 V2000
    1.9630    9.6750   24.4670 C   0  0  0  0  0  0  0  0  0  0  0  0
    1.0900   10.7840   24.5030 C   0  0  0  0  0  0  0  0  0  0  0  0
    3.3090    9.8250   24.0810 C   0  0  0  0  0  0  0  0  0  0  0  0
    2.9440   12.2100   23.7670 C   0  0  0  0  0  0  0  0  0  0  0  0
    3.8010   11.0950   23.7290 C   0  0  0  0  0  0  0  0  0  0  0  0
    1.5970   12.0610   24.1530 C   0  0  0  0  0  0  0  0  0  0  0  0
    0.0810    9.5380   27.1890 C   0  0  0  0  0  0  0  0  0  0  0  0
    5.4490   11.2850   23.2560 C   0  0  0  0  0  0  0  0  0  0  0  0
    0.5880   13.4630   24.2040 C   0  0  0  0  0  0  0  0  0  0  0  0
   -0.3120   10.5900   24.9050 C   0  0  0  0  0  0  0  0  0  0  0  0
   -3.0430   10.2840   25.5380 N   0  0  0  0  0  0  0  0  0  0  0  0
   -0.7200   10.0170   26.1340 C   0  0  0  0  0  0  0  0  0  0  0  0
   -0.9630    9.1190   28.0730 C   0  0  0  0  0  0  0  0  0  0  0  0
   -2.0680    9.9020   26.3660 N   0  0  0  0  0  0  0  0  0  0  0  0
   -4.5010   11.1630   23.6480 H   0  0  0  0  0  0  0  0  0  0  0  0
   -3.2400   11.6670   22.5860 H   0  0  0  0  0  0  0  0  0  0  0  0
   -2.2060    9.3300   27.5980 N   0  0  0  0  0  0  0  0  0  0  0  0
   -1.2620   11.0030   24.0280 N   0  0  0  0  0  0  0  0  0  0  0  0
   -2.5620   10.8260   24.3880 C   0  0  0  0  0  0  0  0  0  0  0  0
   -3.5110   11.2550   23.4670 N   0  0  0  0  0  0  0  0  0  0  0  0
  1  3  2  0  0  0  0
  1  2  1  0  0  0  0
  2  6  2  0  0  0  0
  2 10  1  0  0  0  0
  3  5  1  0  0  0  0
  4  5  2  0  0  0  0
  4  6  1  0  0  0  0
  5  8  1  0  0  0  0
  6  9  1  0  0  0  0
  7 12  2  0  0  0  0
  7 13  1  0  0  0  0
 10 18  2  0  0  0  0
 10 12  1  0  0  0  0
 11 19  2  0  0  0  0
 11 14  1  0  0  0  0
 12 14  1  0  0  0  0
 13 17  2  0  0  0  0
 14 17  1  0  0  0  0
 15 20  1  0  0  0  0
 16 20  1  0  0  0  0
 18 19  1  0  0  0  0
 19 20  1  0  0  0  0
M  END
