../datasets/input/THROMBIN/poses/3D/ligand.pdb
 OpenBabel02221916063D

 45 46  0  0  1  0  0  0  0  0999 V2000
   38.4880   20.8870   39.7420 C   0  0  0  0  0  0  0  0  0  0  0  0
   38.0960   22.2170   39.1720 C   0  0  0  0  0  0  0  0  0  0  0  0
   37.1050   22.7530   39.5880 O   0  0  0  0  0  0  0  0  0  0  0  0
   39.4040   21.0190   40.9860 C   0  0  0  0  0  0  0  0  0  0  0  0
   38.8730   22.8020   38.2080 N   0  0  0  0  0  0  0  0  0  0  0  0
   38.6450   24.0950   37.6630 C   0  0  2  0  0  0  0  0  0  0  0  0
   37.2130   24.1890   37.0320 C   0  0  0  0  0  0  0  0  0  0  0  0
   36.7070   23.3280   36.3440 O   0  0  0  0  0  0  0  0  0  0  0  0
   39.7190   24.2120   36.6140 C   0  0  0  0  0  0  0  0  0  0  0  0
   40.8120   23.2200   36.9680 C   0  0  0  0  0  0  0  0  0  0  0  0
   40.0780   22.1250   37.6560 C   0  0  0  0  0  0  0  0  0  0  0  0
   36.5240   25.3490   37.3340 N   0  0  0  0  0  0  0  0  0  0  0  0
   35.1450   25.6340   36.9220 C   0  0  0  0  0  0  0  0  0  0  0  0
   34.1900   25.6270   38.1300 C   0  0  0  0  0  0  0  0  0  0  0  0
   33.2270   24.5820   38.2070 C   0  0  0  0  0  0  0  0  0  0  0  0
   32.3920   24.5810   39.3360 C   0  0  0  0  0  0  0  0  0  0  0  0
   32.3490   25.5840   40.2280 C   0  0  0  0  0  0  0  0  0  0  0  0
   33.1990   26.6920   40.0880 C   0  0  0  0  0  0  0  0  0  0  0  0
   34.1630   26.6670   39.0110 C   0  0  0  0  0  0  0  0  0  0  0  0
   33.0510   27.9210   41.2140 C   0  0  0  0  0  0  0  0  0  0  0  0
   39.9890   19.6150   41.2800 C   0  0  0  0  0  0  0  0  0  0  0  0
   38.7100   21.4130   42.2530 C   0  0  0  0  0  0  0  0  0  0  0  0
   40.1950   21.7390   40.7680 H   0  0  0  0  0  0  0  0  0  0  0  0
   38.9020   20.3290   38.9000 H   0  0  0  0  0  0  0  0  0  0  0  0
   38.8780   24.7580   38.5010 H   0  0  0  0  0  0  0  0  0  0  0  0
   39.2820   24.0590   35.6250 H   0  0  0  0  0  0  0  0  0  0  0  0
   40.1010   25.2310   36.7060 H   0  0  0  0  0  0  0  0  0  0  0  0
   41.2800   22.9900   36.0090 H   0  0  0  0  0  0  0  0  0  0  0  0
   41.5990   23.6100   37.6170 H   0  0  0  0  0  0  0  0  0  0  0  0
   40.7320   21.5950   38.3520 H   0  0  0  0  0  0  0  0  0  0  0  0
   39.7760   21.4400   36.8600 H   0  0  0  0  0  0  0  0  0  0  0  0
   36.9490   26.0620   37.9090 H   0  0  0  0  0  0  0  0  0  0  0  0
   35.1430   26.5950   36.4010 H   0  0  0  0  0  0  0  0  0  0  0  0
   34.7610   25.0020   36.1170 H   0  0  0  0  0  0  0  0  0  0  0  0
   33.2560   23.7550   37.5020 H   0  0  0  0  0  0  0  0  0  0  0  0
   31.6380   23.8020   39.4160 H   0  0  0  0  0  0  0  0  0  0  0  0
   31.5750   25.5590   40.9910 H   0  0  0  0  0  0  0  0  0  0  0  0
   34.9190   27.4430   38.9290 H   0  0  0  0  0  0  0  0  0  0  0  0
   37.4930   20.4860   39.9470 H   0  0  0  0  0  0  0  0  0  0  0  0
   40.6780   19.6560   42.1260 H   0  0  0  0  0  0  0  0  0  0  0  0
   39.2770   18.8760   41.6520 H   0  0  0  0  0  0  0  0  0  0  0  0
   40.4170   19.0580   40.4440 H   0  0  0  0  0  0  0  0  0  0  0  0
   39.4160   21.7600   43.0100 H   0  0  0  0  0  0  0  0  0  0  0  0
   37.9460   22.1800   42.1090 H   0  0  0  0  0  0  0  0  0  0  0  0
   38.0430   20.5870   42.5090 H   0  0  0  0  0  0  0  0  0  0  0  0
  1 24  1  0  0  0  0
  1  2  1  0  0  0  0
  1 39  1  0  0  0  0
  1  4  1  0  0  0  0
  2  5  1  0  0  0  0
  2  3  2  0  0  0  0
  4 23  1  0  0  0  0
  4 21  1  0  0  0  0
  4 22  1  0  0  0  0
  5 11  1  0  0  0  0
  5  6  1  0  0  0  0
  6  9  1  0  0  0  0
  6  7  1  0  0  0  0
  6 25  1  1  0  0  0
  7  8  2  0  0  0  0
  7 12  1  0  0  0  0
  9 26  1  0  0  0  0
  9 27  1  0  0  0  0
  9 10  1  0  0  0  0
 10 28  1  0  0  0  0
 10 29  1  0  0  0  0
 10 11  1  0  0  0  0
 11 31  1  0  0  0  0
 11 30  1  0  0  0  0
 12 13  1  0  0  0  0
 12 32  1  0  0  0  0
 13 34  1  0  0  0  0
 13 33  1  0  0  0  0
 13 14  1  0  0  0  0
 14 15  2  0  0  0  0
 14 19  1  0  0  0  0
 15 35  1  0  0  0  0
 15 16  1  0  0  0  0
 16 36  1  0  0  0  0
 16 17  2  0  0  0  0
 17 18  1  0  0  0  0
 17 37  1  0  0  0  0
 18 19  2  0  0  0  0
 18 20  1  0  0  0  0
 19 38  1  0  0  0  0
 21 42  1  0  0  0  0
 21 41  1  0  0  0  0
 21 40  1  0  0  0  0
 22 44  1  0  0  0  0
 22 45  1  0  0  0  0
 22 43  1  0  0  0  0
M  END
