@<TRIPOS>MOLECULE
1a
 52 54 0 0 0
SMALL
GASTEIGER
****

@<TRIPOS>ATOM
      1 N          18.3477  -13.2695   21.7072 N.am    1  UNL1       -0.2853
      2 C          18.1765  -11.9782   21.0132 C.3     1  UNL1        0.1024
      3 C          17.4561  -13.7932   22.5862 C.2     1  UNL1        0.2646
      4 O          16.4566  -13.1696   22.9501 O.2     1  UNL1       -0.2694
      5 C          16.7891  -11.7919   20.3607 C.2     1  UNL1        0.2338
      6 O          16.3129  -12.6820   19.6534 O.2     1  UNL1       -0.2738
      7 C          19.2877  -11.9490   19.9528 C.3     1  UNL1       -0.0243
      8 C          17.6818  -15.1940   23.1883 C.3     1  UNL1        0.0574
      9 N          16.1564  -10.6408   20.6065 N.am    1  UNL1       -0.3097
     10 C          20.3708  -12.8696   20.4764 C.3     1  UNL1       -0.0350
     11 N          16.4280  -15.9626   23.1045 N.4     1  UNL1        0.2276
     12 C          18.1548  -15.1270   24.6591 C.3     1  UNL1        0.0241
     13 C          14.8280  -10.2760   20.1411 C.3     1  UNL1        0.0370
     14 C          19.6283  -13.8844   21.3391 C.3     1  UNL1        0.0157
     15 C          19.5750  -14.6212   24.8423 C.ar    1  UNL1       -0.0415
     16 C          13.7200  -10.6282   21.1183 C.ar    1  UNL1       -0.0276
     17 C          20.6767  -15.4490   24.5360 C.ar    1  UNL1       -0.0584
     18 C          13.2089  -11.9431   21.1732 C.ar    1  UNL1       -0.0569
     19 C          21.9890  -14.9496   24.6571 C.ar    1  UNL1       -0.0615
     20 C          12.1531  -12.2553   22.0546 C.ar    1  UNL1       -0.0587
     21 C          22.2038  -13.6243   25.0836 C.ar    1  UNL1       -0.0617
     22 C          11.6074  -11.2561   22.8870 C.ar    1  UNL1       -0.0264
     23 C          21.1084  -12.8096   25.4224 C.ar    1  UNL1       -0.0615
     24 C          12.1303   -9.9484   22.8494 C.ar    1  UNL1        0.1237
     25 C          19.8037  -13.3135   25.3100 C.ar    1  UNL1       -0.0584
     26 C          13.1834   -9.6356   21.9677 C.ar    1  UNL1       -0.0218
     27 F          11.6288   -8.9896   23.6636 F       1  UNL1       -0.2055
     28 H          18.3473  -11.1866   21.7427 H       1  UNL1        0.0597
     29 H          18.9283  -12.3278   18.9940 H       1  UNL1        0.0288
     30 H          19.6663  -10.9449   19.7868 H       1  UNL1        0.0288
     31 H          18.4070  -15.7607   22.6062 H       1  UNL1        0.0952
     32 H          16.6541   -9.9374   21.1520 H       1  UNL1        0.1491
     33 H          20.9506  -13.3366   19.6790 H       1  UNL1        0.0281
     34 H          21.0642  -12.3021   21.0991 H       1  UNL1        0.0281
     35 H          16.5546  -16.8799   23.5049 H       1  UNL1        0.2002
     36 H          15.7068  -15.4618   23.6107 H       1  UNL1        0.2002
     37 H          16.1495  -16.0443   22.1377 H       1  UNL1        0.2002
     38 H          17.4693  -14.5110   25.2456 H       1  UNL1        0.0373
     39 H          18.1057  -16.1206   25.1069 H       1  UNL1        0.0373
     40 H          14.8206   -9.1968   19.9898 H       1  UNL1        0.0512
     41 H          14.6149  -10.7331   19.1722 H       1  UNL1        0.0512
     42 H          20.2303  -14.1483   22.2066 H       1  UNL1        0.0465
     43 H          19.4426  -14.7918   20.7627 H       1  UNL1        0.0465
     44 H          20.5231  -16.4639   24.1961 H       1  UNL1        0.0620
     45 H          13.6273  -12.7128   20.5372 H       1  UNL1        0.0621
     46 H          22.8339  -15.5815   24.4209 H       1  UNL1        0.0618
     47 H          11.7602  -13.2621   22.0956 H       1  UNL1        0.0619
     48 H          23.2093  -13.2396   25.1644 H       1  UNL1        0.0618
     49 H          21.2545  -11.7997   25.7767 H       1  UNL1        0.0618
     50 H          18.9815  -12.6889   25.6020 H       1  UNL1        0.0620
     51 H          13.5784   -8.6306   21.9529 H       1  UNL1        0.0649
     52 H          10.7939  -11.4932   23.5600 H       1  UNL1        0.0646
@<TRIPOS>BOND
     1     1     2    1
     2     1     3   am
     3     1    14    1
     4     2     5    1
     5     2     7    1
     6     3     4    2
     7     3     8    1
     8     5     6    2
     9     5     9   am
    10     7    10    1
    11     8    11    1
    12     8    12    1
    13     9    13    1
    14    10    14    1
    15    12    15    1
    16    13    16    1
    17    15    17   ar
    18    15    25   ar
    19    16    18   ar
    20    16    26   ar
    21    17    19   ar
    22    18    20   ar
    23    19    21   ar
    24    20    22   ar
    25    21    23   ar
    26    22    24   ar
    27    23    25   ar
    28    24    26   ar
    29    24    27    1
    30     2    28    1
    31     7    29    1
    32     7    30    1
    33     8    31    1
    34     9    32    1
    35    10    33    1
    36    10    34    1
    37    11    35    1
    38    11    36    1
    39    11    37    1
    40    12    38    1
    41    12    39    1
    42    13    40    1
    43    13    41    1
    44    14    42    1
    45    14    43    1
    46    17    44    1
    47    18    45    1
    48    19    46    1
    49    20    47    1
    50    21    48    1
    51    22    52    1
    52    23    49    1
    53    25    50    1
    54    26    51    1
