../datasets/input/FXR_2/poses/FXR10/ligand.pdb
 OpenBabel02211915413D

 54 58  0  0  0  0  0  0  0  0999 V2000
   40.5510   14.6030    1.5550 N   0  0  0  0  0  0  0  0  0  0  0  0
   44.4530   11.7550    2.8590 N   0  0  0  0  0  0  0  0  0  0  0  0
   35.6660   18.6340   -0.6150 C   0  0  0  0  0  0  0  0  0  0  0  0
   36.5950   17.7560    0.1640 C   0  0  0  0  0  0  0  0  0  0  0  0
   37.9820   17.9730    0.1350 C   0  0  0  0  0  0  0  0  0  0  0  0
   38.8560   17.1280    0.8470 C   0  0  0  0  0  0  0  0  0  0  0  0
   38.3560   15.9770    1.4900 C   0  0  0  0  0  0  0  0  0  0  0  0
   39.2630   14.9660    2.1720 C   0  0  0  0  0  0  0  0  0  0  0  0
   41.5200   14.0100    2.2750 C   0  0  0  0  0  0  0  0  0  0  0  0
   42.7240   13.6200    1.3900 C   0  0  0  0  0  0  0  0  0  0  0  0
   42.7520   12.1090    1.1130 C   0  0  0  0  0  0  0  0  0  0  0  0
   43.1700   11.2890    2.3260 C   0  0  0  0  0  0  0  0  0  0  0  0
   44.5440   13.2000    3.1590 C   0  0  0  0  0  0  0  0  0  0  0  0
   44.0910   14.0610    1.9560 C   0  0  0  0  0  0  0  0  0  0  0  0
   42.3100   14.3150    0.1220 C   0  0  0  0  0  0  0  0  0  0  0  0
   43.0440   14.4120   -1.0730 C   0  0  0  0  0  0  0  0  0  0  0  0
   42.3940   14.9180   -2.2140 C   0  0  0  0  0  0  0  0  0  0  0  0
   41.0310   15.2780   -2.1510 C   0  0  0  0  0  0  0  0  0  0  0  0
   40.3100   15.1780   -0.9430 C   0  0  0  0  0  0  0  0  0  0  0  0
   40.9900   14.7440    0.2120 C   0  0  0  0  0  0  0  0  0  0  0  0
   36.9660   15.7550    1.5200 C   0  0  0  0  0  0  0  0  0  0  0  0
   36.0940   16.6530    0.8850 C   0  0  0  0  0  0  0  0  0  0  0  0
   34.4580   18.3400   -0.6800 O   0  5  0  0  0  0  0  0  0  0  0  0
   36.1020   19.5520   -1.3450 O   0  0  0  0  0  0  0  0  0  0  0  0
   41.4990   13.8340    3.4950 O   0  0  0  0  0  0  0  0  0  0  0  0
   45.5090    9.4100    3.0370 O   0  0  0  0  0  0  0  0  0  0  0  0
   46.4490   11.3230    4.4330 O   0  0  0  0  0  0  0  0  0  0  0  0
   43.3560   15.1000   -3.8440 Br  0  0  0  0  0  0  0  0  0  0  0  0
   45.3040   10.6190    3.8400 S   0  0  0  0  0  0  0  0  0  0  0  0
   44.1450   10.2110    5.1370 C   0  0  0  0  0  0  0  0  0  0  0  0
   43.7280    8.5590    5.4940 S   0  0  0  0  0  0  0  0  0  0  0  0
   42.6090    9.0640    6.7380 C   0  0  0  0  0  0  0  0  0  0  0  0
   42.5410   10.4300    6.8230 C   0  0  0  0  0  0  0  0  0  0  0  0
   43.4180   11.0850    5.9040 C   0  0  0  0  0  0  0  0  0  0  0  0
   38.3580   18.7920   -0.4590 H   0  0  0  0  0  0  0  0  0  0  0  0
   39.9200   17.3090    0.8230 H   0  0  0  0  0  0  0  0  0  0  0  0
   39.4480   15.3590    3.1730 H   0  0  0  0  0  0  0  0  0  0  0  0
   38.7070   14.0410    2.3220 H   0  0  0  0  0  0  0  0  0  0  0  0
   43.4270   11.8910    0.2850 H   0  0  0  0  0  0  0  0  0  0  0  0
   41.7640   11.7770    0.7930 H   0  0  0  0  0  0  0  0  0  0  0  0
   42.4110   11.3250    3.1090 H   0  0  0  0  0  0  0  0  0  0  0  0
   43.2630   10.2450    2.0360 H   0  0  0  0  0  0  0  0  0  0  0  0
   45.5740   13.4570    3.4100 H   0  0  0  0  0  0  0  0  0  0  0  0
   43.9530   13.4250    4.0450 H   0  0  0  0  0  0  0  0  0  0  0  0
   44.0620   15.1130    2.2450 H   0  0  0  0  0  0  0  0  0  0  0  0
   44.8470   13.9830    1.1740 H   0  0  0  0  0  0  0  0  0  0  0  0
   44.0710   14.0880   -1.1240 H   0  0  0  0  0  0  0  0  0  0  0  0
   40.5320   15.6410   -3.0290 H   0  0  0  0  0  0  0  0  0  0  0  0
   39.2600   15.4200   -0.9310 H   0  0  0  0  0  0  0  0  0  0  0  0
   36.5570   14.8850    2.0100 H   0  0  0  0  0  0  0  0  0  0  0  0
   35.0340   16.4660    0.9070 H   0  0  0  0  0  0  0  0  0  0  0  0
   42.0860    8.3210    7.3230 H   0  0  0  0  0  0  0  0  0  0  0  0
   41.9130   10.9770    7.5080 H   0  0  0  0  0  0  0  0  0  0  0  0
   43.4980   12.1600    5.8400 H   0  0  0  0  0  0  0  0  0  0  0  0
  1  8  1  0  0  0  0
  1  9  1  0  0  0  0
  1 20  1  0  0  0  0
  2 12  1  0  0  0  0
  2 13  1  0  0  0  0
  2 29  1  0  0  0  0
  3  4  1  0  0  0  0
  3 23  1  0  0  0  0
  3 24  2  0  0  0  0
  4  5  1  0  0  0  0
  4 22  2  0  0  0  0
  5  6  2  0  0  0  0
  5 35  1  0  0  0  0
  6  7  1  0  0  0  0
  6 36  1  0  0  0  0
  7  8  1  0  0  0  0
  7 21  2  0  0  0  0
  8 37  1  0  0  0  0
  8 38  1  0  0  0  0
  9 10  1  0  0  0  0
  9 25  2  0  0  0  0
 10 11  1  0  0  0  0
 10 14  1  0  0  0  0
 10 15  1  0  0  0  0
 11 12  1  0  0  0  0
 11 39  1  0  0  0  0
 11 40  1  0  0  0  0
 12 41  1  0  0  0  0
 12 42  1  0  0  0  0
 13 14  1  0  0  0  0
 13 43  1  0  0  0  0
 13 44  1  0  0  0  0
 14 45  1  0  0  0  0
 14 46  1  0  0  0  0
 15 16  1  0  0  0  0
 15 20  2  0  0  0  0
 16 17  2  0  0  0  0
 16 47  1  0  0  0  0
 17 18  1  0  0  0  0
 17 28  1  0  0  0  0
 18 19  2  0  0  0  0
 18 48  1  0  0  0  0
 19 20  1  0  0  0  0
 19 49  1  0  0  0  0
 21 22  1  0  0  0  0
 21 50  1  0  0  0  0
 22 51  1  0  0  0  0
 26 29  2  0  0  0  0
 27 29  2  0  0  0  0
 29 30  1  0  0  0  0
 30 31  1  0  0  0  0
 30 34  2  0  0  0  0
 31 32  1  0  0  0  0
 32 33  2  0  0  0  0
 32 52  1  0  0  0  0
 33 34  1  0  0  0  0
 33 53  1  0  0  0  0
 34 54  1  0  0  0  0
M  CHG  1  23  -1
M  END
