../datasets/input/FXR_2/poses/FXR89/ligand.pdb
 OpenBabel02211915413D

 57 61  0  0  0  0  0  0  0  0999 V2000
   40.6590   14.5700    1.5610 N   0  0  0  0  0  0  0  0  0  0  0  0
   44.5990   11.7630    2.8790 N   0  0  0  0  0  0  0  0  0  0  0  0
   35.7940   18.5940   -0.6950 C   0  0  0  0  0  0  0  0  0  0  0  0
   36.7170   17.7220    0.1030 C   0  0  0  0  0  0  0  0  0  0  0  0
   38.1060   17.9390    0.0790 C   0  0  0  0  0  0  0  0  0  0  0  0
   38.9760   17.1010    0.8070 C   0  0  0  0  0  0  0  0  0  0  0  0
   38.4750   15.9610    1.4690 C   0  0  0  0  0  0  0  0  0  0  0  0
   39.3800   14.9650    2.1770 C   0  0  0  0  0  0  0  0  0  0  0  0
   41.6250   13.9690    2.2840 C   0  0  0  0  0  0  0  0  0  0  0  0
   42.8130   13.5410    1.3930 C   0  0  0  0  0  0  0  0  0  0  0  0
   42.8360   12.0200    1.1790 C   0  0  0  0  0  0  0  0  0  0  0  0
   43.3040   11.2590    2.4120 C   0  0  0  0  0  0  0  0  0  0  0  0
   44.6730   13.2170    3.1320 C   0  0  0  0  0  0  0  0  0  0  0  0
   44.1880   14.0180    1.9060 C   0  0  0  0  0  0  0  0  0  0  0  0
   44.4050   10.1870    5.1230 C   0  0  0  0  0  0  0  0  0  0  0  0
   43.7740   11.1710    5.9140 C   0  0  0  0  0  0  0  0  0  0  0  0
   42.8330   10.7750    6.8910 C   0  0  0  0  0  0  0  0  0  0  0  0
   42.5230    9.4110    7.0690 C   0  0  0  0  0  0  0  0  0  0  0  0
   43.1440    8.4400    6.2600 C   0  0  0  0  0  0  0  0  0  0  0  0
   44.0850    8.8200    5.2800 C   0  0  0  0  0  0  0  0  0  0  0  0
   42.3830   14.1840    0.1070 C   0  0  0  0  0  0  0  0  0  0  0  0
   43.0950   14.2040   -1.1050 C   0  0  0  0  0  0  0  0  0  0  0  0
   42.4470   14.7020   -2.2500 C   0  0  0  0  0  0  0  0  0  0  0  0
   41.1050   15.1280   -2.1700 C   0  0  0  0  0  0  0  0  0  0  0  0
   40.4010   15.0920   -0.9500 C   0  0  0  0  0  0  0  0  0  0  0  0
   41.0810   14.6620    0.2070 C   0  0  0  0  0  0  0  0  0  0  0  0
   37.0840   15.7420    1.4930 C   0  0  0  0  0  0  0  0  0  0  0  0
   36.2160   16.6300    0.8370 C   0  0  0  0  0  0  0  0  0  0  0  0
   34.5750   18.3230   -0.7350 O   0  5  0  0  0  0  0  0  0  0  0  0
   36.2370   19.4790   -1.4560 O   0  0  0  0  0  0  0  0  0  0  0  0
   41.6110   13.7960    3.5050 O   0  0  0  0  0  0  0  0  0  0  0  0
   45.8030    9.4920    2.9800 O   0  0  0  0  0  0  0  0  0  0  0  0
   46.6640   11.4360    4.3770 O   0  0  0  0  0  0  0  0  0  0  0  0
   43.3850   14.7780   -3.9010 Br  0  0  0  0  0  0  0  0  0  0  0  0
   45.5430   10.6660    3.8160 S   0  0  0  0  0  0  0  0  0  0  0  0
   41.3840    8.9230    8.2700 Cl  0  0  0  0  0  0  0  0  0  0  0  0
   44.5570    8.0740    4.6500 H   0  0  0  0  0  0  0  0  0  0  0  0
   38.4880   18.7530   -0.5180 H   0  0  0  0  0  0  0  0  0  0  0  0
   40.0410   17.2810    0.7820 H   0  0  0  0  0  0  0  0  0  0  0  0
   39.5790   15.3850    3.1650 H   0  0  0  0  0  0  0  0  0  0  0  0
   38.8180   14.0490    2.3600 H   0  0  0  0  0  0  0  0  0  0  0  0
   43.4880   11.7690    0.3420 H   0  0  0  0  0  0  0  0  0  0  0  0
   41.8390   11.6700    0.9080 H   0  0  0  0  0  0  0  0  0  0  0  0
   42.5700   11.3250    3.2180 H   0  0  0  0  0  0  0  0  0  0  0  0
   43.3980   10.2050    2.1640 H   0  0  0  0  0  0  0  0  0  0  0  0
   45.7020   13.5030    3.3560 H   0  0  0  0  0  0  0  0  0  0  0  0
   44.0870   13.4700    4.0150 H   0  0  0  0  0  0  0  0  0  0  0  0
   44.1560   15.0830    2.1470 H   0  0  0  0  0  0  0  0  0  0  0  0
   44.9280   13.9090    1.1130 H   0  0  0  0  0  0  0  0  0  0  0  0
   44.0260   12.2160    5.7840 H   0  0  0  0  0  0  0  0  0  0  0  0
   42.3490   11.5130    7.5120 H   0  0  0  0  0  0  0  0  0  0  0  0
   42.8940    7.4030    6.4030 H   0  0  0  0  0  0  0  0  0  0  0  0
   44.1030   13.8290   -1.1610 H   0  0  0  0  0  0  0  0  0  0  0  0
   40.6090   15.4940   -3.0480 H   0  0  0  0  0  0  0  0  0  0  0  0
   39.3620   15.3780   -0.9360 H   0  0  0  0  0  0  0  0  0  0  0  0
   36.6700   14.8820    1.9970 H   0  0  0  0  0  0  0  0  0  0  0  0
   35.1550   16.4430    0.8590 H   0  0  0  0  0  0  0  0  0  0  0  0
  1  8  1  0  0  0  0
  1  9  1  0  0  0  0
  1 26  1  0  0  0  0
  2 12  1  0  0  0  0
  2 13  1  0  0  0  0
  2 35  1  0  0  0  0
  3  4  1  0  0  0  0
  3 29  1  0  0  0  0
  3 30  2  0  0  0  0
  4  5  1  0  0  0  0
  4 28  2  0  0  0  0
  5  6  2  0  0  0  0
  5 38  1  0  0  0  0
  6  7  1  0  0  0  0
  6 39  1  0  0  0  0
  7  8  1  0  0  0  0
  7 27  2  0  0  0  0
  8 40  1  0  0  0  0
  8 41  1  0  0  0  0
  9 10  1  0  0  0  0
  9 31  2  0  0  0  0
 10 11  1  0  0  0  0
 10 14  1  0  0  0  0
 10 21  1  0  0  0  0
 11 12  1  0  0  0  0
 11 42  1  0  0  0  0
 11 43  1  0  0  0  0
 12 44  1  0  0  0  0
 12 45  1  0  0  0  0
 13 14  1  0  0  0  0
 13 46  1  0  0  0  0
 13 47  1  0  0  0  0
 14 48  1  0  0  0  0
 14 49  1  0  0  0  0
 15 16  1  0  0  0  0
 15 20  2  0  0  0  0
 15 35  1  0  0  0  0
 16 17  2  0  0  0  0
 16 50  1  0  0  0  0
 17 18  1  0  0  0  0
 17 51  1  0  0  0  0
 18 19  2  0  0  0  0
 18 36  1  0  0  0  0
 19 20  1  0  0  0  0
 19 52  1  0  0  0  0
 20 37  1  0  0  0  0
 21 22  1  0  0  0  0
 21 26  2  0  0  0  0
 22 23  2  0  0  0  0
 22 53  1  0  0  0  0
 23 24  1  0  0  0  0
 23 34  1  0  0  0  0
 24 25  2  0  0  0  0
 24 54  1  0  0  0  0
 25 26  1  0  0  0  0
 25 55  1  0  0  0  0
 27 28  1  0  0  0  0
 27 56  1  0  0  0  0
 28 57  1  0  0  0  0
 32 35  2  0  0  0  0
 33 35  2  0  0  0  0
M  CHG  1  29  -1
M  END
