../datasets/input/FXR_1/poses/INT02/ligand.pdb
 OpenBabel02211915413D

 57 61  0  0  0  0  0  0  0  0999 V2000
   39.5280   14.1610    1.4210 N   0  0  0  0  0  0  0  0  0  0  0  0
   41.7130   11.6520    5.1720 N   0  0  0  0  0  0  0  0  0  0  0  0
   42.9590   11.4520    1.2450 N   0  0  0  0  0  0  0  0  0  0  0  0
   42.3800   12.5710    0.7240 N   0  0  0  0  0  0  0  0  0  0  0  0
   40.8320   14.4130    1.6320 C   0  0  0  0  0  0  0  0  0  0  0  0
   38.4880   15.0340    0.9900 C   0  0  0  0  0  0  0  0  0  0  0  0
   37.2240   14.4650    0.7320 C   0  0  0  0  0  0  0  0  0  0  0  0
   36.1570   15.2600    0.2790 C   0  0  0  0  0  0  0  0  0  0  0  0
   36.3320   16.6440    0.0860 C   0  0  0  0  0  0  0  0  0  0  0  0
   37.5890   17.2360    0.3440 C   0  0  0  0  0  0  0  0  0  0  0  0
   38.6590   16.4190    0.7690 C   0  0  0  0  0  0  0  0  0  0  0  0
   41.6710   13.2150    1.7390 C   0  0  0  0  0  0  0  0  0  0  0  0
   41.8830   12.5720    2.9200 C   0  0  0  0  0  0  0  0  0  0  0  0
   41.4750   12.8450    4.3400 C   0  0  0  0  0  0  0  0  0  0  0  0
   43.0060   10.9550    4.9510 C   0  0  0  0  0  0  0  0  0  0  0  0
   43.1720   10.4550    3.5020 C   0  0  0  0  0  0  0  0  0  0  0  0
   42.6900   11.4840    2.5380 C   0  0  0  0  0  0  0  0  0  0  0  0
   42.5720   12.8640   -0.6630 C   0  0  0  0  0  0  0  0  0  0  0  0
   43.5140   12.1040   -1.4000 C   0  0  0  0  0  0  0  0  0  0  0  0
   43.7000   12.3100   -2.7760 C   0  0  0  0  0  0  0  0  0  0  0  0
   42.9600   13.3000   -3.4400 C   0  0  0  0  0  0  0  0  0  0  0  0
   42.0400   14.0830   -2.7250 C   0  0  0  0  0  0  0  0  0  0  0  0
   41.8490   13.8720   -1.3490 C   0  0  0  0  0  0  0  0  0  0  0  0
   42.2910   12.7140    7.6810 C   0  0  0  0  0  0  0  0  0  0  0  0
   42.0370   13.9410    8.2370 C   0  0  0  0  0  0  0  0  0  0  0  0
   43.1640   14.4840    8.9250 C   0  0  0  0  0  0  0  0  0  0  0  0
   44.2710   13.6800    8.8590 C   0  0  0  0  0  0  0  0  0  0  0  0
   41.3220   15.5230    1.7890 O   0  0  0  0  0  0  0  0  0  0  0  0
   39.8440   12.4090    6.7800 O   0  0  0  0  0  0  0  0  0  0  0  0
   41.2370   10.3120    7.3030 O   0  0  0  0  0  0  0  0  0  0  0  0
   41.1240   11.6870    6.7930 S   0  0  0  0  0  0  0  0  0  0  0  0
   43.9420   12.2210    7.9650 S   0  0  0  0  0  0  0  0  0  0  0  0
   37.8340   18.6920    0.1610 C   0  0  0  0  0  0  0  0  0  0  0  0
   38.9580   19.1850    0.0810 O   0  0  0  0  0  0  0  0  0  0  0  0
   36.6230   19.6150    0.0960 C   0  0  0  0  0  0  0  0  0  0  0  0
   39.2930   13.1810    1.4690 H   0  0  0  0  0  0  0  0  0  0  0  0
   37.0580   13.4060    0.8650 H   0  0  0  0  0  0  0  0  0  0  0  0
   35.1980   14.7990    0.1010 H   0  0  0  0  0  0  0  0  0  0  0  0
   39.6120   16.8910    0.9230 H   0  0  0  0  0  0  0  0  0  0  0  0
   42.0250   13.6870    4.7630 H   0  0  0  0  0  0  0  0  0  0  0  0
   40.4190   13.1120    4.4020 H   0  0  0  0  0  0  0  0  0  0  0  0
   43.1130   10.1160    5.6390 H   0  0  0  0  0  0  0  0  0  0  0  0
   43.8060   11.6480    5.1940 H   0  0  0  0  0  0  0  0  0  0  0  0
   42.6020    9.5410    3.3680 H   0  0  0  0  0  0  0  0  0  0  0  0
   44.2160   10.2140    3.3080 H   0  0  0  0  0  0  0  0  0  0  0  0
   44.1140   11.3480   -0.9170 H   0  0  0  0  0  0  0  0  0  0  0  0
   44.4240   11.7120   -3.3100 H   0  0  0  0  0  0  0  0  0  0  0  0
   43.1150   13.4810   -4.4910 H   0  0  0  0  0  0  0  0  0  0  0  0
   41.4850   14.8520   -3.2310 H   0  0  0  0  0  0  0  0  0  0  0  0
   41.1290   14.5080   -0.8690 H   0  0  0  0  0  0  0  0  0  0  0  0
   41.0850   14.4460    8.1850 H   0  0  0  0  0  0  0  0  0  0  0  0
   43.1220   15.4280    9.4460 H   0  0  0  0  0  0  0  0  0  0  0  0
   45.2470   13.8500    9.3010 H   0  0  0  0  0  0  0  0  0  0  0  0
   35.4970   17.2390   -0.2550 H   0  0  0  0  0  0  0  0  0  0  0  0
   36.9450   20.6550    0.1410 H   0  0  0  0  0  0  0  0  0  0  0  0
   35.9630   19.4280    0.9410 H   0  0  0  0  0  0  0  0  0  0  0  0
   36.0740   19.4630   -0.8320 H   0  0  0  0  0  0  0  0  0  0  0  0
  1  5  1  0  0  0  0
  1  6  1  0  0  0  0
  1 36  1  0  0  0  0
  2 14  1  0  0  0  0
  2 15  1  0  0  0  0
  2 31  1  0  0  0  0
  3  4  1  0  0  0  0
  3 17  2  0  0  0  0
  4 12  1  0  0  0  0
  4 18  1  0  0  0  0
  5 12  1  0  0  0  0
  5 28  2  0  0  0  0
  6  7  1  0  0  0  0
  6 11  2  0  0  0  0
  7  8  2  0  0  0  0
  7 37  1  0  0  0  0
  8  9  1  0  0  0  0
  8 38  1  0  0  0  0
  9 10  2  0  0  0  0
  9 54  1  0  0  0  0
 10 11  1  0  0  0  0
 10 33  1  0  0  0  0
 11 39  1  0  0  0  0
 12 13  2  0  0  0  0
 13 14  1  0  0  0  0
 13 17  1  0  0  0  0
 14 40  1  0  0  0  0
 14 41  1  0  0  0  0
 15 16  1  0  0  0  0
 15 42  1  0  0  0  0
 15 43  1  0  0  0  0
 16 17  1  0  0  0  0
 16 44  1  0  0  0  0
 16 45  1  0  0  0  0
 18 19  1  0  0  0  0
 18 23  2  0  0  0  0
 19 20  2  0  0  0  0
 19 46  1  0  0  0  0
 20 21  1  0  0  0  0
 20 47  1  0  0  0  0
 21 22  2  0  0  0  0
 21 48  1  0  0  0  0
 22 23  1  0  0  0  0
 22 49  1  0  0  0  0
 23 50  1  0  0  0  0
 24 25  2  0  0  0  0
 24 31  1  0  0  0  0
 24 32  1  0  0  0  0
 25 26  1  0  0  0  0
 25 51  1  0  0  0  0
 26 27  2  0  0  0  0
 26 52  1  0  0  0  0
 27 32  1  0  0  0  0
 27 53  1  0  0  0  0
 29 31  2  0  0  0  0
 30 31  2  0  0  0  0
 33 34  2  0  0  0  0
 33 35  1  0  0  0  0
 35 55  1  0  0  0  0
 35 56  1  0  0  0  0
 35 57  1  0  0  0  0
M  END
