../datasets/input/FXR_1/poses/FXR45/ligand.pdb
 OpenBabel03111910173D

 65 69  0  0  0  0  0  0  0  0999 V2000
   39.4550   13.9460    2.0320 N   0  0  0  0  0  0  0  0  0  0  0  0
   35.2220   17.6610   -1.0890 O   0  0  0  0  0  0  0  0  0  0  0  0
   41.7350   11.2450    5.8350 N   0  0  0  0  0  0  0  0  0  0  0  0
   42.8350   11.0580    1.8690 N   0  0  0  0  0  0  0  0  0  0  0  0
   42.2470   12.1920    1.3960 N   0  0  0  0  0  0  0  0  0  0  0  0
   40.7580   14.0510    2.3750 C   0  0  0  0  0  0  0  0  0  0  0  0
   38.6230   14.9780    1.5020 C   0  0  0  0  0  0  0  0  0  0  0  0
   37.5660   14.6290    0.6330 C   0  0  0  0  0  0  0  0  0  0  0  0
   36.8160   15.6300   -0.0210 C   0  0  0  0  0  0  0  0  0  0  0  0
   37.1050   17.0020    0.1830 C   0  0  0  0  0  0  0  0  0  0  0  0
   38.1230   17.3450    1.0950 C   0  0  0  0  0  0  0  0  0  0  0  0
   38.8400   16.3440    1.7750 C   0  0  0  0  0  0  0  0  0  0  0  0
   36.3610   18.0930   -0.5100 C   0  0  0  0  0  0  0  0  0  0  0  0
   34.7680   18.7220   -3.2430 C   0  0  0  0  0  0  0  0  0  0  0  0
   34.3770   18.5810   -1.7670 C   0  0  0  0  0  0  0  0  0  0  0  0
   41.5050   12.7850    2.4160 C   0  0  0  0  0  0  0  0  0  0  0  0
   41.7300   12.1070    3.5680 C   0  0  0  0  0  0  0  0  0  0  0  0
   41.3720   12.3880    4.9860 C   0  0  0  0  0  0  0  0  0  0  0  0
   43.0480   10.6110    5.5490 C   0  0  0  0  0  0  0  0  0  0  0  0
   43.1200   10.0470    4.1180 C   0  0  0  0  0  0  0  0  0  0  0  0
   42.5600   11.0460    3.1610 C   0  0  0  0  0  0  0  0  0  0  0  0
   42.5010   12.6000    0.0550 C   0  0  0  0  0  0  0  0  0  0  0  0
   43.4750   11.9220   -0.7170 C   0  0  0  0  0  0  0  0  0  0  0  0
   43.7730   12.3310   -2.0300 C   0  0  0  0  0  0  0  0  0  0  0  0
   43.1010   13.4270   -2.6000 C   0  0  0  0  0  0  0  0  0  0  0  0
   42.1110   14.0870   -1.8400 C   0  0  0  0  0  0  0  0  0  0  0  0
   41.8260   13.6870   -0.5370 C   0  0  0  0  0  0  0  0  0  0  0  0
   42.4080   12.6250    8.1330 C   0  0  0  0  0  0  0  0  0  0  0  0
   42.0490   13.8430    8.6420 C   0  0  0  0  0  0  0  0  0  0  0  0
   43.1550   14.5770    9.1580 C   0  0  0  0  0  0  0  0  0  0  0  0
   44.3520   13.9300    8.9960 C   0  0  0  0  0  0  0  0  0  0  0  0
   41.3470   15.1050    2.6060 O   0  0  0  0  0  0  0  0  0  0  0  0
   36.7380   19.2660   -0.5490 O   0  0  0  0  0  0  0  0  0  0  0  0
   39.9490   12.0130    7.4880 O   0  0  0  0  0  0  0  0  0  0  0  0
   41.5500   10.1050    8.1070 O   0  0  0  0  0  0  0  0  0  0  0  0
   41.2830   11.4020    7.4740 S   0  0  0  0  0  0  0  0  0  0  0  0
   44.1320   12.3770    8.2380 S   0  0  0  0  0  0  0  0  0  0  0  0
   43.4750   13.8270   -3.8590 O   0  0  0  0  0  0  0  0  0  0  0  0
   42.8060   14.8550   -4.4360 C   0  0  0  0  0  0  0  0  0  0  0  0
   43.2660   15.0730   -5.6810 F   0  0  0  0  0  0  0  0  0  0  0  0
   41.4960   14.5550   -4.5430 F   0  0  0  0  0  0  0  0  0  0  0  0
   42.9450   16.0180   -3.7500 F   0  0  0  0  0  0  0  0  0  0  0  0
   39.1210   12.9980    1.9270 H   0  0  0  0  0  0  0  0  0  0  0  0
   37.3330   13.5930    0.4320 H   0  0  0  0  0  0  0  0  0  0  0  0
   36.0360   15.3290   -0.7020 H   0  0  0  0  0  0  0  0  0  0  0  0
   38.3430   18.3850    1.2930 H   0  0  0  0  0  0  0  0  0  0  0  0
   39.5680   16.6400    2.5080 H   0  0  0  0  0  0  0  0  0  0  0  0
   35.8140   19.0080   -3.3570 H   0  0  0  0  0  0  0  0  0  0  0  0
   34.1720   19.4930   -3.7210 H   0  0  0  0  0  0  0  0  0  0  0  0
   34.3870   19.5550   -1.2730 H   0  0  0  0  0  0  0  0  0  0  0  0
   33.3540   18.2160   -1.6980 H   0  0  0  0  0  0  0  0  0  0  0  0
   41.8830   13.2820    5.3510 H   0  0  0  0  0  0  0  0  0  0  0  0
   40.3030   12.5830    5.0860 H   0  0  0  0  0  0  0  0  0  0  0  0
   43.2570    9.8190    6.2700 H   0  0  0  0  0  0  0  0  0  0  0  0
   43.8270   11.3600    5.6690 H   0  0  0  0  0  0  0  0  0  0  0  0
   42.5650    9.1120    4.0630 H   0  0  0  0  0  0  0  0  0  0  0  0
   44.1570    9.8230    3.8700 H   0  0  0  0  0  0  0  0  0  0  0  0
   44.0240   11.0910   -0.3010 H   0  0  0  0  0  0  0  0  0  0  0  0
   44.5380   11.8150   -2.5940 H   0  0  0  0  0  0  0  0  0  0  0  0
   41.5570   14.9360   -2.2070 H   0  0  0  0  0  0  0  0  0  0  0  0
   41.0680   14.2670   -0.0500 H   0  0  0  0  0  0  0  0  0  0  0  0
   41.0340   14.2070    8.6890 H   0  0  0  0  0  0  0  0  0  0  0  0
   43.0330   15.5350    9.6360 H   0  0  0  0  0  0  0  0  0  0  0  0
   45.3370   14.2570    9.3110 H   0  0  0  0  0  0  0  0  0  0  0  0
   34.6000   17.7960   -3.7920 H   0  0  0  0  0  0  0  0  0  0  0  0
  1  6  1  0  0  0  0
  1  7  1  0  0  0  0
  1 43  1  0  0  0  0
  2 13  1  0  0  0  0
  2 15  1  0  0  0  0
  3 18  1  0  0  0  0
  3 19  1  0  0  0  0
  3 36  1  0  0  0  0
  4  5  1  0  0  0  0
  4 21  2  0  0  0  0
  5 16  1  0  0  0  0
  5 22  1  0  0  0  0
  6 16  1  0  0  0  0
  6 32  2  0  0  0  0
  7  8  1  0  0  0  0
  7 12  2  0  0  0  0
  8  9  2  0  0  0  0
  8 44  1  0  0  0  0
  9 10  1  0  0  0  0
  9 45  1  0  0  0  0
 10 11  2  0  0  0  0
 10 13  1  0  0  0  0
 11 12  1  0  0  0  0
 11 46  1  0  0  0  0
 12 47  1  0  0  0  0
 13 33  2  0  0  0  0
 14 15  1  0  0  0  0
 14 48  1  0  0  0  0
 14 49  1  0  0  0  0
 14 65  1  0  0  0  0
 15 50  1  0  0  0  0
 15 51  1  0  0  0  0
 16 17  2  0  0  0  0
 17 18  1  0  0  0  0
 17 21  1  0  0  0  0
 18 52  1  0  0  0  0
 18 53  1  0  0  0  0
 19 20  1  0  0  0  0
 19 54  1  0  0  0  0
 19 55  1  0  0  0  0
 20 21  1  0  0  0  0
 20 56  1  0  0  0  0
 20 57  1  0  0  0  0
 22 23  1  0  0  0  0
 22 27  2  0  0  0  0
 23 24  2  0  0  0  0
 23 58  1  0  0  0  0
 24 25  1  0  0  0  0
 24 59  1  0  0  0  0
 25 26  2  0  0  0  0
 25 38  1  0  0  0  0
 26 27  1  0  0  0  0
 26 60  1  0  0  0  0
 27 61  1  0  0  0  0
 28 29  2  0  0  0  0
 28 36  1  0  0  0  0
 28 37  1  0  0  0  0
 29 30  1  0  0  0  0
 29 62  1  0  0  0  0
 30 31  2  0  0  0  0
 30 63  1  0  0  0  0
 31 37  1  0  0  0  0
 31 64  1  0  0  0  0
 34 36  2  0  0  0  0
 35 36  2  0  0  0  0
 38 39  1  0  0  0  0
 39 40  1  0  0  0  0
 39 41  1  0  0  0  0
 39 42  1  0  0  0  0
M  END
$$$$
