# Molecule written by the XED library from Cresset
@<TRIPOS>MOLECULE
MK1
    32     33      1
SMALL
USER_CHARGES
@<TRIPOS>ATOM
      1  O          39.2344   17.6631   12.7847 O.co2     1 LIG1       -0.2388
      2  C          40.3521   17.1022   12.7361 C.2       1 LIG1        0.2632
      3  O          41.1779   17.2188   11.8039 O.2       1 LIG1       -0.2388
      4  C          40.7693   16.2193   13.9145 C.3       1 LIG1        0.0711
      5  O          42.0927   15.7292   13.7433 O.3       1 LIG1       -0.1783
      6  C          42.5144   14.9212   14.7395 C.ar      1 LIG1        0.1207
      7  C          42.1857   13.5746   14.8668 C.ar      1 LIG1        0.0742
      8  BR         41.2068   12.6502   13.5170 Br        1 LIG1       -0.0777
      9  C          42.6245   12.9340   16.0147 C.ar      1 LIG1        0.0705
     10  C          42.3443   11.5877   16.4784 C.ar      1 LIG1       -0.0084
     11  C          43.3652   10.7568   16.9469 C.ar      1 LIG1       -0.1115
     12  C          43.0859    9.4573   17.3660 C.ar      1 LIG1       -0.0870
     13  C          41.7792    8.9724   17.3119 C.ar      1 LIG1       -0.1147
     14  C          40.7402    9.7888   16.8449 C.ar      1 LIG1        0.0350
     15  N          39.3981    9.3767   16.7741 N.pl3     1 LIG1       -0.3193
     16  C          38.9977    7.9742   16.7120 C.3       1 LIG1       -0.0702
     17  C          41.0348   11.0941   16.4477 C.ar      1 LIG1       -0.1068
     18  S          43.6360   14.0254   16.9149 S.3       1 LIG1       -0.0976
     19  C          43.3652   15.3253   15.7665 C.ar      1 LIG1        0.0496
     20  C          44.0487   16.6109   16.0384 C.2       1 LIG1        0.2791
     21  O          43.8749   17.5611   15.2448 O.co2     1 LIG1       -0.2548
     22  O          44.7784   16.7152   17.0498 O.2       1 LIG1       -0.2548
     23  H          40.7112   16.7969   14.8381 H         1 LIG1        0.0707
     24  H          40.0553   15.3978   13.9949 H         1 LIG1        0.0707
     25  H          44.3837   11.1152   16.9828 H         1 LIG1        0.0910
     26  H          43.8827    8.8262   17.7310 H         1 LIG1        0.0906
     27  H          41.5909    7.9604   17.6367 H         1 LIG1        0.0917
     28  H          38.6573   10.0627   16.8096 H         1 LIG1        0.2757
     29  H          39.6610    7.3812   17.3429 H         1 LIG1        0.0543
     30  H          37.9898    7.8712   17.1160 H         1 LIG1        0.0543
     31  H          40.2334   11.7381   16.1154 H         1 LIG1        0.0921
     32  H          39.0357    7.5788   15.5797 H         1 LIG1        0.0543
@<TRIPOS>BOND
     1      2      1 1 
     2      3      2 2 
     3      4      2 1 
     4      5      4 1 
     5      6      5 1 
     6      7      6 ar
     7      8      7 1 
     8      9      7 ar
     9     10      9 1 
    10     11     10 ar
    11     12     11 ar
    12     13     12 ar
    13     14     13 ar
    14     15     14 1 
    15     16     15 1 
    16     17     10 ar
    17     17     14 ar
    18     18      9 ar
    19     19      6 ar
    20     19     18 ar
    21     20     19 1 
    22     21     20 1 
    23     22     20 2 
    24     16     32 1 
    25     23      4 1 
    26     24      4 1 
    27     25     11 1 
    28     26     12 1 
    29     27     13 1 
    30     28     15 1 
    31     29     16 1 
    32     30     16 1 
    33     31     17 1 
@<TRIPOS>SUBSTRUCTURE
     1 LIG1         1 MOLECULE          1 A
