# Molecule written by the XED library from Cresset
@<TRIPOS>MOLECULE
mk1
    36     38      1
SMALL
USER_CHARGES
@<TRIPOS>ATOM
      1  C          11.8131   -2.0987    1.0830 C.3       1 LIG1        0.0242
      2  N          13.1333   -2.4685    0.5574 N.am      1 LIG1       -0.1265
      3  C          14.2852   -2.5313    1.2456 C.2       1 LIG1        0.0195
      4  N          14.4325   -2.3247    2.5605 N.pl3     1 LIG1       -0.2416
      5  N          15.3128   -2.8535    0.4545 N.2       1 LIG1       -0.1600
      6  C          14.9091   -3.0355   -0.9381 C.3       1 LIG1        0.0855
      7  C          15.5119   -1.9635   -1.8622 C.ar      1 LIG1       -0.0392
      8  C          16.1762   -2.3128   -3.0621 C.ar      1 LIG1       -0.0839
      9  C          16.6331   -1.3123   -3.9325 C.ar      1 LIG1       -0.0890
     10  C          16.4138    0.0423   -3.6289 C.ar      1 LIG1       -0.0812
     11  C          15.7986    0.4335   -2.4212 C.ar      1 LIG1       -0.0205
     12  C          15.5499    1.8627   -2.1169 C.ar      1 LIG1       -0.0161
     13  C          15.2539    2.7805   -3.1518 C.ar      1 LIG1       -0.0869
     14  C          14.9337    4.1235   -2.8692 C.ar      1 LIG1       -0.0832
     15  C          14.9159    4.5776   -1.5397 C.ar      1 LIG1       -0.0640
     16  C          15.2415    3.6932   -0.4988 C.ar      1 LIG1        0.0440
     17  CL         15.2368    4.2623    1.1299 Cl        1 LIG1       -0.1083
     18  C          15.5569    2.3503   -0.7887 C.ar      1 LIG1       -0.0557
     19  C          15.3759   -0.5881   -1.5399 C.ar      1 LIG1       -0.0748
     20  C          13.3951   -2.8049   -0.8053 C.2       1 LIG1        0.1879
     21  O          12.5342   -2.8850   -1.6872 O.2       1 LIG1       -0.4603
     22  C          15.1891   -4.4888   -1.3782 H         1 LIG1        0.0656
     23  H          11.6714   -1.0232    0.9797 H         1 LIG1        0.0548
     24  H          11.0132   -2.6016    0.5387 H         1 LIG1        0.0548
     25  H          11.7238   -2.3619    2.1367 H         1 LIG1        0.0548
     26  H          15.3678   -2.3767    2.9680 H         1 LIG1        0.1868
     27  H          16.3362   -3.3388   -3.3593 H         1 LIG1        0.0908
     28  H          17.1290   -1.5869   -4.8534 H         1 LIG1        0.0906
     29  H          16.7243    0.7864   -4.3450 H         1 LIG1        0.0910
     30  H          15.2246    2.4443   -4.1780 H         1 LIG1        0.0910
     31  H          14.6756    4.8037   -3.6678 H         1 LIG1        0.0906
     32  H          14.6511    5.6013   -1.3159 H         1 LIG1        0.0939
     33  H          15.8012    1.6883    0.0253 H         1 LIG1        0.0943
     34  H          14.8782   -0.3032   -0.6255 H         1 LIG1        0.0912
     35  H          13.6878   -2.0198    3.1842 H         1 LIG1        0.1868
     36  H          16.2530   -2.9562    0.7787 H         1 LIG1        0.2183
@<TRIPOS>BOND
     1      2      1 1 
     2      3      2 am
     3      4      3 am
     4      5      3 2 
     5      6      5 1 
     6      7      6 1 
     7      8      7 ar
     8      9      8 ar
     9     10      9 ar
    10     11     10 ar
    11     12     11 1 
    12     13     12 ar
    13     14     13 ar
    14     15     14 ar
    15     16     15 ar
    16     17     16 1 
    17     18     12 ar
    18     18     16 ar
    19     19      7 ar
    20     19     11 ar
    21     20      2 am
    22     20      6 1 
    23     21     20 2 
    24      5     36 1 
    25     22      6 1 
    26     23      1 1 
    27     24      1 1 
    28     25      1 1 
    29     26      4 1 
    30     27      8 1 
    31     28      9 1 
    32     29     10 1 
    33     30     13 1 
    34     31     14 1 
    35     32     15 1 
    36     33     18 1 
    37     34     19 1 
    38     35      4 1 
@<TRIPOS>SUBSTRUCTURE
     1 LIG1         1 MOLECULE          1 A
