../datasets/input/FXR_1/poses/FXR95/ligand.pdb
 OpenBabel03111910173D

 59 63  0  0  0  0  0  0  0  0999 V2000
   39.4550   14.2260    1.7610 N   0  0  0  0  0  0  0  0  0  0  0  0
   35.1800   18.4920   -1.0430 C   0  0  0  0  0  0  0  0  0  0  0  0
   41.7170   11.5510    5.2870 N   0  0  0  0  0  0  0  0  0  0  0  0
   42.8670   11.3660    1.3180 N   0  0  0  0  0  0  0  0  0  0  0  0
   42.3050   12.5010    0.8140 N   0  0  0  0  0  0  0  0  0  0  0  0
   40.8000   14.3610    1.7420 C   0  0  0  0  0  0  0  0  0  0  0  0
   38.5400   15.2370    1.3520 C   0  0  0  0  0  0  0  0  0  0  0  0
   37.4240   14.9170    0.5460 C   0  0  0  0  0  0  0  0  0  0  0  0
   36.6480   15.9490   -0.0260 C   0  0  0  0  0  0  0  0  0  0  0  0
   36.9830   17.3080    0.2030 C   0  0  0  0  0  0  0  0  0  0  0  0
   38.0350   17.6140    1.0820 C   0  0  0  0  0  0  0  0  0  0  0  0
   38.7660   16.5840    1.6890 C   0  0  0  0  0  0  0  0  0  0  0  0
   36.3720   18.4120   -0.4390 N   0  0  0  0  0  0  0  0  0  0  0  0
   34.9140   19.7860   -1.8010 C   0  0  0  0  0  0  0  0  0  0  0  0
   34.3150   17.6220   -0.9900 O   0  0  0  0  0  0  0  0  0  0  0  0
   41.5760   13.1200    1.8340 C   0  0  0  0  0  0  0  0  0  0  0  0
   41.7770   12.4550    3.0070 C   0  0  0  0  0  0  0  0  0  0  0  0
   41.4000   12.7180    4.4400 C   0  0  0  0  0  0  0  0  0  0  0  0
   43.0080   10.8760    5.0090 C   0  0  0  0  0  0  0  0  0  0  0  0
   43.0970   10.3500    3.5630 C   0  0  0  0  0  0  0  0  0  0  0  0
   42.5890   11.3760    2.6100 C   0  0  0  0  0  0  0  0  0  0  0  0
   42.5220   12.8240   -0.5660 C   0  0  0  0  0  0  0  0  0  0  0  0
   43.4670   12.0720   -1.3090 C   0  0  0  0  0  0  0  0  0  0  0  0
   43.6470   12.2790   -2.6880 C   0  0  0  0  0  0  0  0  0  0  0  0
   42.9020   13.2710   -3.3490 C   0  0  0  0  0  0  0  0  0  0  0  0
   41.9950   14.0570   -2.6230 C   0  0  0  0  0  0  0  0  0  0  0  0
   41.8100   13.8430   -1.2460 C   0  0  0  0  0  0  0  0  0  0  0  0
   42.3860   12.7090    7.7330 C   0  0  0  0  0  0  0  0  0  0  0  0
   42.0960   13.8970    8.3480 C   0  0  0  0  0  0  0  0  0  0  0  0
   43.2320   14.4910    8.9720 C   0  0  0  0  0  0  0  0  0  0  0  0
   44.3830   13.7700    8.7900 C   0  0  0  0  0  0  0  0  0  0  0  0
   41.3900   15.4290    1.6060 O   0  0  0  0  0  0  0  0  0  0  0  0
   39.9170   12.3030    6.9600 O   0  0  0  0  0  0  0  0  0  0  0  0
   41.4010   10.2740    7.4930 O   0  0  0  0  0  0  0  0  0  0  0  0
   41.2160   11.6220    6.9350 S   0  0  0  0  0  0  0  0  0  0  0  0
   44.0780   12.3150    7.8820 S   0  0  0  0  0  0  0  0  0  0  0  0
   39.1060   13.2820    1.8470 H   0  0  0  0  0  0  0  0  0  0  0  0
   37.1800   13.8910    0.3110 H   0  0  0  0  0  0  0  0  0  0  0  0
   35.8340   15.6800   -0.6810 H   0  0  0  0  0  0  0  0  0  0  0  0
   38.2950   18.6390    1.2970 H   0  0  0  0  0  0  0  0  0  0  0  0
   39.5480   16.8320    2.3820 H   0  0  0  0  0  0  0  0  0  0  0  0
   35.7550   20.0320   -2.4490 H   0  0  0  0  0  0  0  0  0  0  0  0
   34.7600   20.6120   -1.1070 H   0  0  0  0  0  0  0  0  0  0  0  0
   41.9240   13.5890    4.8380 H   0  0  0  0  0  0  0  0  0  0  0  0
   40.3350   12.9360    4.5310 H   0  0  0  0  0  0  0  0  0  0  0  0
   43.1670   10.0530    5.7070 H   0  0  0  0  0  0  0  0  0  0  0  0
   43.8080   11.5890    5.1850 H   0  0  0  0  0  0  0  0  0  0  0  0
   42.5040    9.4450    3.4710 H   0  0  0  0  0  0  0  0  0  0  0  0
   44.1290   10.0930    3.3290 H   0  0  0  0  0  0  0  0  0  0  0  0
   44.0640   11.3100   -0.8300 H   0  0  0  0  0  0  0  0  0  0  0  0
   44.3640   11.6830   -3.2330 H   0  0  0  0  0  0  0  0  0  0  0  0
   43.0480   13.4520   -4.4030 H   0  0  0  0  0  0  0  0  0  0  0  0
   41.4380   14.8300   -3.1210 H   0  0  0  0  0  0  0  0  0  0  0  0
   41.0870   14.4740   -0.7630 H   0  0  0  0  0  0  0  0  0  0  0  0
   41.1100   14.3320    8.3940 H   0  0  0  0  0  0  0  0  0  0  0  0
   43.1650   15.4090    9.5340 H   0  0  0  0  0  0  0  0  0  0  0  0
   45.3780   13.9910    9.1610 H   0  0  0  0  0  0  0  0  0  0  0  0
   34.0270   19.6890   -2.4270 H   0  0  0  0  0  0  0  0  0  0  0  0
   36.9260   19.2530   -0.4430 H   0  0  0  0  0  0  0  0  0  0  0  0
  1  6  1  0  0  0  0
  1  7  1  0  0  0  0
  1 37  1  0  0  0  0
  2 13  1  0  0  0  0
  2 14  1  0  0  0  0
  2 15  2  0  0  0  0
  3 18  1  0  0  0  0
  3 19  1  0  0  0  0
  3 35  1  0  0  0  0
  4  5  1  0  0  0  0
  4 21  2  0  0  0  0
  5 16  1  0  0  0  0
  5 22  1  0  0  0  0
  6 16  1  0  0  0  0
  6 32  2  0  0  0  0
  7  8  1  0  0  0  0
  7 12  2  0  0  0  0
  8  9  2  0  0  0  0
  8 38  1  0  0  0  0
  9 10  1  0  0  0  0
  9 39  1  0  0  0  0
 10 11  2  0  0  0  0
 10 13  1  0  0  0  0
 11 12  1  0  0  0  0
 11 40  1  0  0  0  0
 12 41  1  0  0  0  0
 13 59  1  0  0  0  0
 14 42  1  0  0  0  0
 14 43  1  0  0  0  0
 14 58  1  0  0  0  0
 16 17  2  0  0  0  0
 17 18  1  0  0  0  0
 17 21  1  0  0  0  0
 18 44  1  0  0  0  0
 18 45  1  0  0  0  0
 19 20  1  0  0  0  0
 19 46  1  0  0  0  0
 19 47  1  0  0  0  0
 20 21  1  0  0  0  0
 20 48  1  0  0  0  0
 20 49  1  0  0  0  0
 22 23  1  0  0  0  0
 22 27  2  0  0  0  0
 23 24  2  0  0  0  0
 23 50  1  0  0  0  0
 24 25  1  0  0  0  0
 24 51  1  0  0  0  0
 25 26  2  0  0  0  0
 25 52  1  0  0  0  0
 26 27  1  0  0  0  0
 26 53  1  0  0  0  0
 27 54  1  0  0  0  0
 28 29  2  0  0  0  0
 28 35  1  0  0  0  0
 28 36  1  0  0  0  0
 29 30  1  0  0  0  0
 29 55  1  0  0  0  0
 30 31  2  0  0  0  0
 30 56  1  0  0  0  0
 31 36  1  0  0  0  0
 31 57  1  0  0  0  0
 33 35  2  0  0  0  0
 34 35  2  0  0  0  0
M  END
$$$$
