../datasets/input/HSP90_3/poses/HSP90_28/ligand.pdb
 OpenBabel03111910153D

 29 32  0  0  0  0  0  0  0  0999 V2000
    2.4630    6.9830   23.0090 C   0  0  0  0  0  0  0  0  0  0  0  0
    1.8410    8.2240   22.7120 O   0  0  0  0  0  0  0  0  0  0  0  0
    2.5850    9.3800   22.8410 C   0  0  0  0  0  0  0  0  0  0  0  0
    3.9530    9.4730   22.4760 C   0  0  0  0  0  0  0  0  0  0  0  0
    4.6510   10.6860   22.6180 C   0  0  0  0  0  0  0  0  0  0  0  0
    3.9940   11.8200   23.1240 C   0  0  0  0  0  0  0  0  0  0  0  0
    2.6390   11.7360   23.4900 C   0  0  0  0  0  0  0  0  0  0  0  0
    1.9270   10.5240   23.3580 C   0  0  0  0  0  0  0  0  0  0  0  0
    0.5080   10.4740   23.7530 C   0  0  0  0  0  0  0  0  0  0  0  0
    0.1410    9.8010   24.9370 C   0  0  0  0  0  0  0  0  0  0  0  0
   -1.2050    9.7320   25.3600 C   0  0  0  0  0  0  0  0  0  0  0  0
   -1.5260    9.0540   26.5730 N   0  0  0  0  0  0  0  0  0  0  0  0
   -2.2570    9.5200   27.6150 C   0  0  0  0  0  0  0  0  0  0  0  0
   -2.6190   10.6800   27.8010 O   0  0  0  0  0  0  0  0  0  0  0  0
   -2.5100    8.4810   28.4330 N   0  0  0  0  0  0  0  0  0  0  0  0
   -1.9530    7.3140   27.9070 C   0  0  0  0  0  0  0  0  0  0  0  0
   -1.9580    5.9980   28.3930 C   0  0  0  0  0  0  0  0  0  0  0  0
   -1.2870    5.0240   27.6170 C   0  0  0  0  0  0  0  0  0  0  0  0
   -0.6380    5.3800   26.4060 C   0  0  0  0  0  0  0  0  0  0  0  0
   -0.6500    6.7170   25.9420 C   0  0  0  0  0  0  0  0  0  0  0  0
   -1.3330    7.6660   26.7250 C   0  0  0  0  0  0  0  0  0  0  0  0
   -2.2080   10.3450   24.5690 C   0  0  0  0  0  0  0  0  0  0  0  0
   -3.5240   10.3210   24.9330 O   0  0  0  0  0  0  0  0  0  0  0  0
   -1.8510   11.0150   23.3830 C   0  0  0  0  0  0  0  0  0  0  0  0
   -0.5050   11.0800   22.9740 C   0  0  0  0  0  0  0  0  0  0  0  0
   -0.1970   11.7290   21.8110 O   0  0  0  0  0  0  0  0  0  0  0  0
   -3.0310    8.5130   29.2970 H   0  0  0  0  0  0  0  0  0  0  0  0
   -4.0730   10.8280   24.3520 H   0  0  0  0  0  0  0  0  0  0  0  0
   -0.9530   12.0910   21.3750 H   0  0  0  0  0  0  0  0  0  0  0  0
  2  3  1  0  0  0  0
  2  1  1  0  0  0  0
  3  8  2  0  0  0  0
  4  5  2  0  0  0  0
  4  3  1  0  0  0  0
  5  6  1  0  0  0  0
  6  7  2  0  0  0  0
  8  7  1  0  0  0  0
  8  9  1  0  0  0  0
  9 10  2  0  0  0  0
 10 11  1  0  0  0  0
 11 12  1  0  0  0  0
 12 21  1  0  0  0  0
 12 13  1  0  0  0  0
 13 14  2  0  0  0  0
 13 15  1  0  0  0  0
 15 27  1  0  0  0  0
 16 17  1  0  0  0  0
 16 15  1  0  0  0  0
 18 17  2  0  0  0  0
 19 18  1  0  0  0  0
 20 19  2  0  0  0  0
 20 21  1  0  0  0  0
 21 16  2  0  0  0  0
 22 23  1  0  0  0  0
 22 11  2  0  0  0  0
 24 22  1  0  0  0  0
 25 24  2  0  0  0  0
 25  9  1  0  0  0  0
 26 25  1  0  0  0  0
 28 23  1  0  0  0  0
 29 26  1  0  0  0  0
M  END
$$$$
