@<TRIPOS>MOLECULE
1c
 52 54 0 0 0
SMALL
GASTEIGER
****

@<TRIPOS>ATOM
      1 N          18.2567  -13.2370   21.7047 N.am    1  UNL1       -0.2853
      2 C          18.0563  -11.9400   21.0292 C.3     1  UNL1        0.1024
      3 C          17.3896  -13.7779   22.5952 C.2     1  UNL1        0.2646
      4 O          16.3917  -13.1666   22.9805 O.2     1  UNL1       -0.2694
      5 C          16.6512  -11.7486   20.4074 C.2     1  UNL1        0.2338
      6 O          16.1521  -12.6411   19.7201 O.2     1  UNL1       -0.2738
      7 C          19.1524  -11.8879   19.9553 C.3     1  UNL1       -0.0243
      8 C          17.6454  -15.1784   23.1855 C.3     1  UNL1        0.0574
      9 N          16.0303  -10.5893   20.6541 N.am    1  UNL1       -0.3097
     10 C          20.2529  -12.8095   20.4423 C.3     1  UNL1       -0.0350
     11 N          16.4042  -15.9674   23.1089 N.4     1  UNL1        0.2276
     12 C          18.1324  -15.1110   24.6516 C.3     1  UNL1        0.0241
     13 C          14.6909  -10.2121   20.2216 C.3     1  UNL1        0.0369
     14 C          19.5366  -13.8367   21.3109 C.3     1  UNL1        0.0157
     15 C          19.5574  -14.6140   24.8234 C.ar    1  UNL1       -0.0415
     16 C          13.6305  -10.3468   21.3020 C.ar    1  UNL1       -0.0293
     17 C          19.8009  -13.3110   25.2946 C.ar    1  UNL1       -0.0584
     18 C          12.8881  -11.5388   21.4361 C.ar    1  UNL1       -0.0570
     19 C          21.1106  -12.8184   25.4002 C.ar    1  UNL1       -0.0615
     20 C          11.8799  -11.6379   22.4174 C.ar    1  UNL1       -0.0604
     21 C          22.1968  -13.6402   25.0518 C.ar    1  UNL1       -0.0617
     22 C          11.6148  -10.5494   23.2729 C.ar    1  UNL1       -0.0477
     23 C          21.9671  -14.9595   24.6177 C.ar    1  UNL1       -0.0615
     24 C          12.3735   -9.3681   23.1621 C.ar    1  UNL1        0.0182
     25 C          20.6499  -15.4468   24.5018 C.ar    1  UNL1       -0.0584
     26 C          13.3715   -9.2675   22.1733 C.ar    1  UNL1       -0.0431
     27 BR         12.0950   -7.9251   24.3750 Br      1  UNL1       -0.0503
     28 H          18.2374  -11.1573   21.7653 H       1  UNL1        0.0597
     29 H          18.7803  -12.2424   18.9923 H       1  UNL1        0.0288
     30 H          19.5264  -10.8796   19.8178 H       1  UNL1        0.0288
     31 H          18.3731  -15.7311   22.5934 H       1  UNL1        0.0952
     32 H          16.5517   -9.8879   21.1798 H       1  UNL1        0.1491
     33 H          20.8191  -13.2644   19.6280 H       1  UNL1        0.0281
     34 H          20.9575  -12.2457   21.0555 H       1  UNL1        0.0281
     35 H          16.5487  -16.8835   23.5056 H       1  UNL1        0.2002
     36 H          15.6795  -15.4794   23.6220 H       1  UNL1        0.2002
     37 H          16.1194  -16.0508   22.1442 H       1  UNL1        0.2002
     38 H          17.4555  -14.4917   25.2441 H       1  UNL1        0.0373
     39 H          18.0825  -16.1035   25.1011 H       1  UNL1        0.0373
     40 H          14.7289   -9.1614   19.9406 H       1  UNL1        0.0512
     41 H          14.3887  -10.7636   19.3291 H       1  UNL1        0.0512
     42 H          20.1554  -14.0995   22.1675 H       1  UNL1        0.0465
     43 H          19.3507  -14.7429   20.7328 H       1  UNL1        0.0465
     44 H          18.9872  -12.6824   25.5984 H       1  UNL1        0.0620
     45 H          13.0911  -12.3786   20.7858 H       1  UNL1        0.0621
     46 H          21.2684  -11.8147   25.7648 H       1  UNL1        0.0618
     47 H          11.3106  -12.5518   22.5207 H       1  UNL1        0.0618
     48 H          23.2064  -13.2675   25.1372 H       1  UNL1        0.0618
     49 H          22.8043  -15.5975   24.3729 H       1  UNL1        0.0618
     50 H          20.4851  -16.4562   24.1532 H       1  UNL1        0.0620
     51 H          13.9534   -8.3622   22.1014 H       1  UNL1        0.0632
     52 H          10.8447  -10.6298   24.0277 H       1  UNL1        0.0629
@<TRIPOS>BOND
     1     1     2    1
     2     1     3   am
     3     1    14    1
     4     2     5    1
     5     2     7    1
     6     3     4    2
     7     3     8    1
     8     5     6    2
     9     5     9   am
    10     7    10    1
    11     8    11    1
    12     8    12    1
    13     9    13    1
    14    10    14    1
    15    12    15    1
    16    13    16    1
    17    15    17   ar
    18    15    25   ar
    19    16    18   ar
    20    16    26   ar
    21    17    19   ar
    22    18    20   ar
    23    19    21   ar
    24    20    22   ar
    25    21    23   ar
    26    22    24   ar
    27    23    25   ar
    28    24    26   ar
    29    24    27    1
    30     2    28    1
    31     7    29    1
    32     7    30    1
    33     8    31    1
    34     9    32    1
    35    10    33    1
    36    10    34    1
    37    11    35    1
    38    11    36    1
    39    11    37    1
    40    12    38    1
    41    12    39    1
    42    13    40    1
    43    13    41    1
    44    14    42    1
    45    14    43    1
    46    17    44    1
    47    18    45    1
    48    19    46    1
    49    20    47    1
    50    21    48    1
    51    22    52    1
    52    23    49    1
    53    25    50    1
    54    26    51    1
