../datasets/input/THROMBIN/poses/3K/ligand.pdb
 OpenBabel02211915413D

 49 51  0  0  1  0  0  0  0  0999 V2000
   72.2260   55.1130   75.5450 C   0  0  0  0  0  0  0  0  0  0  0  0
   71.9930   56.4920   74.8330 C   0  0  0  0  0  0  0  0  0  0  0  0
   71.0140   57.1330   75.2580 O   0  0  0  0  0  0  0  0  0  0  0  0
   72.7260   57.0820   73.8680 N   0  0  0  0  0  0  0  0  0  0  0  0
   72.4210   58.3710   73.2430 C   0  0  2  0  0  0  0  0  0  0  0  0
   71.0170   58.4920   72.6820 C   0  0  0  0  0  0  0  0  0  0  0  0
   70.5130   57.5850   72.0140 O   0  0  0  0  0  0  0  0  0  0  0  0
   73.5550   58.5400   72.2610 C   0  0  0  0  0  0  0  0  0  0  0  0
   74.6070   57.4950   72.5690 C   0  0  0  0  0  0  0  0  0  0  0  0
   73.8800   56.4220   73.2820 C   0  0  0  0  0  0  0  0  0  0  0  0
   70.3810   59.6810   72.8650 N   0  0  0  0  0  0  0  0  0  0  0  0
   68.9780   59.8680   72.5520 C   0  0  0  0  0  0  0  0  0  0  0  0
   68.0460   59.9090   73.7950 C   0  0  0  0  0  0  0  0  0  0  0  0
   67.1150   58.9130   73.8750 C   0  0  0  0  0  0  0  0  0  0  0  0
   66.2600   58.8830   74.9980 C   0  0  0  0  0  0  0  0  0  0  0  0
   66.3190   59.8660   75.9160 C   0  0  0  0  0  0  0  0  0  0  0  0
   67.2290   60.8760   75.8480 C   0  0  0  0  0  0  0  0  0  0  0  0
   68.2040   60.8850   74.8130 C   0  0  0  0  0  0  0  0  0  0  0  0
   67.1700   62.2730   76.9300 C   0  0  0  0  0  0  0  0  0  0  0  0
   72.7400   55.2760   77.0060 C   0  0  0  0  0  0  0  0  0  0  0  0
   76.6560   57.1520   77.3600 C   0  0  0  0  0  0  0  0  0  0  0  0
   76.4500   56.0760   76.5420 C   0  0  0  0  0  0  0  0  0  0  0  0
   75.2370   55.4470   76.4630 C   0  0  0  0  0  0  0  0  0  0  0  0
   74.1410   55.8780   77.1180 C   0  0  0  0  0  0  0  0  0  0  0  0
   74.4010   56.9500   78.0430 C   0  0  0  0  0  0  0  0  0  0  0  0
   75.5750   57.5870   78.1430 C   0  0  0  0  0  0  0  0  0  0  0  0
   72.9230   54.5370   74.9320 H   0  0  0  0  0  0  0  0  0  0  0  0
   72.4660   59.0750   74.0780 H   0  0  0  0  0  0  0  0  0  0  0  0
   73.1410   58.3430   71.2700 H   0  0  0  0  0  0  0  0  0  0  0  0
   73.9300   59.5580   72.3810 H   0  0  0  0  0  0  0  0  0  0  0  0
   75.3070   57.0970   71.8320 H   0  0  0  0  0  0  0  0  0  0  0  0
   75.2680   57.9570   73.3050 H   0  0  0  0  0  0  0  0  0  0  0  0
   74.5740   56.0750   74.0510 H   0  0  0  0  0  0  0  0  0  0  0  0
   73.5620   55.6290   72.6000 H   0  0  0  0  0  0  0  0  0  0  0  0
   70.8720   60.2230   73.5610 H   0  0  0  0  0  0  0  0  0  0  0  0
   68.9090   60.8250   72.0280 H   0  0  0  0  0  0  0  0  0  0  0  0
   68.6680   59.1720   71.7680 H   0  0  0  0  0  0  0  0  0  0  0  0
   67.1520   58.1400   73.1110 H   0  0  0  0  0  0  0  0  0  0  0  0
   65.4510   58.1600   75.0580 H   0  0  0  0  0  0  0  0  0  0  0  0
   65.5900   59.9390   76.7190 H   0  0  0  0  0  0  0  0  0  0  0  0
   68.9290   61.6950   74.8070 H   0  0  0  0  0  0  0  0  0  0  0  0
   71.2700   54.5840   75.5200 H   0  0  0  0  0  0  0  0  0  0  0  0
   72.7360   54.2660   77.4210 H   0  0  0  0  0  0  0  0  0  0  0  0
   72.0390   55.9470   77.5070 H   0  0  0  0  0  0  0  0  0  0  0  0
   77.5750   57.7320   77.3540 H   0  0  0  0  0  0  0  0  0  0  0  0
   77.2440   55.6960   75.9050 H   0  0  0  0  0  0  0  0  0  0  0  0
   75.2730   54.5110   75.9120 H   0  0  0  0  0  0  0  0  0  0  0  0
   73.5400   57.2060   78.6550 H   0  0  0  0  0  0  0  0  0  0  0  0
   75.6450   58.4900   78.7440 H   0  0  0  0  0  0  0  0  0  0  0  0
  1  2  1  0  0  0  0
  1 27  1  0  0  0  0
  1 42  1  0  0  0  0
  1 20  1  0  0  0  0
  2  4  1  0  0  0  0
  2  3  2  0  0  0  0
  4  5  1  0  0  0  0
  4 10  1  0  0  0  0
  5  8  1  0  0  0  0
  5  6  1  0  0  0  0
  5 28  1  1  0  0  0
  6  7  2  0  0  0  0
  6 11  1  0  0  0  0
  8 29  1  0  0  0  0
  8 30  1  0  0  0  0
  8  9  1  0  0  0  0
  9 31  1  0  0  0  0
  9 10  1  0  0  0  0
  9 32  1  0  0  0  0
 10 34  1  0  0  0  0
 10 33  1  0  0  0  0
 11 12  1  0  0  0  0
 11 35  1  0  0  0  0
 12 37  1  0  0  0  0
 12 36  1  0  0  0  0
 12 13  1  0  0  0  0
 13 14  2  0  0  0  0
 13 18  1  0  0  0  0
 14 38  1  0  0  0  0
 14 15  1  0  0  0  0
 15 39  1  0  0  0  0
 15 16  2  0  0  0  0
 16 17  1  0  0  0  0
 16 40  1  0  0  0  0
 17 18  2  0  0  0  0
 17 19  1  0  0  0  0
 18 41  1  0  0  0  0
 20 24  1  0  0  0  0
 20 43  1  0  0  0  0
 20 44  1  0  0  0  0
 21 22  2  0  0  0  0
 21 45  1  0  0  0  0
 21 26  1  0  0  0  0
 22 46  1  0  0  0  0
 22 23  1  0  0  0  0
 23 47  1  0  0  0  0
 23 24  2  0  0  0  0
 24 25  1  0  0  0  0
 25 26  2  0  0  0  0
 25 48  1  0  0  0  0
 26 49  1  0  0  0  0
M  END
