../datasets/input/THROMBIN/poses/3K/ligand.pdb
 OpenBabel02221916063D

 49 51  0  0  1  0  0  0  0  0999 V2000
   40.5830   21.4730   41.1130 C   0  0  0  0  0  0  0  0  0  0  0  0
   38.4640   20.9700   39.7890 C   0  0  0  0  0  0  0  0  0  0  0  0
   38.7680   22.8130   38.0400 N   0  0  0  0  0  0  0  0  0  0  0  0
   37.1650   22.9350   39.6800 O   0  0  0  0  0  0  0  0  0  0  0  0
   41.0140   22.5610   41.8890 C   0  0  0  0  0  0  0  0  0  0  0  0
   38.1040   22.3420   39.1820 C   0  0  0  0  0  0  0  0  0  0  0  0
   36.4320   25.3470   37.2920 N   0  0  0  0  0  0  0  0  0  0  0  0
   36.6130   23.3290   36.2110 O   0  0  0  0  0  0  0  0  0  0  0  0
   42.3430   23.0050   41.7990 C   0  0  0  0  0  0  0  0  0  0  0  0
   38.5040   24.0630   37.4110 C   0  0  2  0  0  0  0  0  0  0  0  0
   43.2410   22.3620   40.9310 C   0  0  0  0  0  0  0  0  0  0  0  0
   37.0480   24.2020   36.9530 C   0  0  0  0  0  0  0  0  0  0  0  0
   42.8100   21.2740   40.1550 C   0  0  0  0  0  0  0  0  0  0  0  0
   39.5840   24.1540   36.3420 C   0  0  0  0  0  0  0  0  0  0  0  0
   41.4810   20.8290   40.2450 C   0  0  0  0  0  0  0  0  0  0  0  0
   40.7540   23.3180   36.7660 C   0  0  0  0  0  0  0  0  0  0  0  0
   39.9130   22.1900   37.3800 C   0  0  0  0  0  0  0  0  0  0  0  0
   35.1210   25.6550   36.9260 C   0  0  0  0  0  0  0  0  0  0  0  0
   34.1640   25.6700   38.0810 C   0  0  0  0  0  0  0  0  0  0  0  0
   33.2200   24.6160   38.1930 C   0  0  0  0  0  0  0  0  0  0  0  0
   32.2730   24.5500   39.2800 C   0  0  0  0  0  0  0  0  0  0  0  0
   32.3330   25.6910   40.1560 C   0  0  0  0  0  0  0  0  0  0  0  0
   33.3140   26.6530   40.0850 C   0  0  0  0  0  0  0  0  0  0  0  0
   34.2270   26.6860   39.0920 C   0  0  0  0  0  0  0  0  0  0  0  0
   39.1250   20.9850   41.2120 C   0  0  0  0  0  0  0  0  0  0  0  0
   33.1230   27.9830   41.2280 C   0  0  0  0  0  0  0  0  0  0  0  0
   39.1810   20.3950   39.2000 H   0  0  0  0  0  0  0  0  0  0  0  0
   38.6860   24.8180   38.1800 H   0  0  0  0  0  0  0  0  0  0  0  0
   39.3240   23.9770   35.2960 H   0  0  0  0  0  0  0  0  0  0  0  0
   39.8520   25.2040   36.4790 H   0  0  0  0  0  0  0  0  0  0  0  0
   41.3730   22.9360   35.9510 H   0  0  0  0  0  0  0  0  0  0  0  0
   41.3730   23.7400   37.5600 H   0  0  0  0  0  0  0  0  0  0  0  0
   40.5150   21.5530   38.0340 H   0  0  0  0  0  0  0  0  0  0  0  0
   39.4200   21.5630   36.6330 H   0  0  0  0  0  0  0  0  0  0  0  0
   36.8620   26.0100   37.9190 H   0  0  0  0  0  0  0  0  0  0  0  0
   39.0790   19.9700   41.6070 H   0  0  0  0  0  0  0  0  0  0  0  0
   38.6000   21.6740   41.8730 H   0  0  0  0  0  0  0  0  0  0  0  0
   40.3080   23.0660   42.5710 H   0  0  0  0  0  0  0  0  0  0  0  0
   42.6820   23.8600   42.4090 H   0  0  0  0  0  0  0  0  0  0  0  0
   44.2850   22.7110   40.8600 H   0  0  0  0  0  0  0  0  0  0  0  0
   35.0900   26.5940   36.3670 H   0  0  0  0  0  0  0  0  0  0  0  0
   43.5150   20.7680   39.4730 H   0  0  0  0  0  0  0  0  0  0  0  0
   34.8500   24.9080   36.1760 H   0  0  0  0  0  0  0  0  0  0  0  0
   41.1420   19.9740   39.6350 H   0  0  0  0  0  0  0  0  0  0  0  0
   33.1700   23.7690   37.5140 H   0  0  0  0  0  0  0  0  0  0  0  0
   31.3800   23.9300   39.2900 H   0  0  0  0  0  0  0  0  0  0  0  0
   31.5450   25.9370   40.8630 H   0  0  0  0  0  0  0  0  0  0  0  0
   34.8550   27.5720   39.0420 H   0  0  0  0  0  0  0  0  0  0  0  0
   37.5640   20.3500   39.7820 H   0  0  0  0  0  0  0  0  0  0  0  0
  1  5  2  0  0  0  0
  1 15  1  0  0  0  0
  1 25  1  0  0  0  0
  2  6  1  0  0  0  0
  2 25  1  0  0  0  0
  2 27  1  0  0  0  0
  2 49  1  0  0  0  0
  3 10  1  0  0  0  0
  3 17  1  0  0  0  0
  3  6  1  0  0  0  0
  4  6  2  0  0  0  0
  5  9  1  0  0  0  0
  5 38  1  0  0  0  0
  7 18  1  0  0  0  0
  7 35  1  0  0  0  0
  7 12  1  0  0  0  0
  8 12  2  0  0  0  0
  9 11  2  0  0  0  0
  9 39  1  0  0  0  0
 10 12  1  0  0  0  0
 10 14  1  0  0  0  0
 10 28  1  1  0  0  0
 11 13  1  0  0  0  0
 11 40  1  0  0  0  0
 13 15  2  0  0  0  0
 13 42  1  0  0  0  0
 14 16  1  0  0  0  0
 14 29  1  0  0  0  0
 14 30  1  0  0  0  0
 15 44  1  0  0  0  0
 16 17  1  0  0  0  0
 16 31  1  0  0  0  0
 16 32  1  0  0  0  0
 17 33  1  0  0  0  0
 17 34  1  0  0  0  0
 18 19  1  0  0  0  0
 18 41  1  0  0  0  0
 18 43  1  0  0  0  0
 19 20  2  0  0  0  0
 19 24  1  0  0  0  0
 20 21  1  0  0  0  0
 20 45  1  0  0  0  0
 21 22  2  0  0  0  0
 21 46  1  0  0  0  0
 22 23  1  0  0  0  0
 22 47  1  0  0  0  0
 23 24  2  0  0  0  0
 23 26  1  0  0  0  0
 24 48  1  0  0  0  0
 25 36  1  0  0  0  0
 25 37  1  0  0  0  0
M  END
