../datasets/input/FXR_1/poses/FXR98/ligand.pdb
 OpenBabel02211915413D

 59 63  0  0  0  0  0  0  0  0999 V2000
   39.3450   14.3150    1.7980 N   0  0  0  0  0  0  0  0  0  0  0  0
   35.1260   17.9180   -1.4960 N   0  0  0  0  0  0  0  0  0  0  0  0
   41.7050   11.7020    5.3880 N   0  0  0  0  0  0  0  0  0  0  0  0
   42.8430   11.5830    1.4200 N   0  0  0  0  0  0  0  0  0  0  0  0
   42.2200   12.6850    0.9180 N   0  0  0  0  0  0  0  0  0  0  0  0
   40.6780   14.5030    1.8640 C   0  0  0  0  0  0  0  0  0  0  0  0
   38.3900   15.2720    1.3490 C   0  0  0  0  0  0  0  0  0  0  0  0
   37.2610   14.8420    0.6170 C   0  0  0  0  0  0  0  0  0  0  0  0
   36.3580   15.7840    0.0790 C   0  0  0  0  0  0  0  0  0  0  0  0
   36.5680   17.1720    0.2650 C   0  0  0  0  0  0  0  0  0  0  0  0
   37.6620   17.5960    1.0410 C   0  0  0  0  0  0  0  0  0  0  0  0
   38.5430   16.6530    1.5950 C   0  0  0  0  0  0  0  0  0  0  0  0
   35.6350   18.2050   -0.2960 C   0  0  0  0  0  0  0  0  0  0  0  0
   41.4970   13.2890    1.9510 C   0  0  0  0  0  0  0  0  0  0  0  0
   41.7360   12.6320    3.1220 C   0  0  0  0  0  0  0  0  0  0  0  0
   41.3540   12.8740    4.5590 C   0  0  0  0  0  0  0  0  0  0  0  0
   43.0260   11.0870    5.1120 C   0  0  0  0  0  0  0  0  0  0  0  0
   43.1380   10.5700    3.6630 C   0  0  0  0  0  0  0  0  0  0  0  0
   42.5820   11.5810    2.7160 C   0  0  0  0  0  0  0  0  0  0  0  0
   42.3720   12.9910   -0.4760 C   0  0  0  0  0  0  0  0  0  0  0  0
   43.2060   12.1690   -1.2750 C   0  0  0  0  0  0  0  0  0  0  0  0
   43.3150   12.3610   -2.6630 C   0  0  0  0  0  0  0  0  0  0  0  0
   42.6120   13.4080   -3.2820 C   0  0  0  0  0  0  0  0  0  0  0  0
   41.8170   14.2640   -2.5050 C   0  0  0  0  0  0  0  0  0  0  0  0
   41.7010   14.0630   -1.1200 C   0  0  0  0  0  0  0  0  0  0  0  0
   42.2290   12.7760    7.9150 C   0  0  0  0  0  0  0  0  0  0  0  0
   41.8410   13.8870    8.6140 C   0  0  0  0  0  0  0  0  0  0  0  0
   42.9170   14.5030    9.3190 C   0  0  0  0  0  0  0  0  0  0  0  0
   44.1180   13.8750    9.1160 C   0  0  0  0  0  0  0  0  0  0  0  0
   41.2340   15.5940    1.7980 O   0  0  0  0  0  0  0  0  0  0  0  0
   35.4460   19.2730    0.2820 O   0  0  0  0  0  0  0  0  0  0  0  0
   39.8160   12.3000    7.0330 O   0  0  0  0  0  0  0  0  0  0  0  0
   41.3640   10.3090    7.5160 O   0  0  0  0  0  0  0  0  0  0  0  0
   41.1440   11.6760    7.0200 S   0  0  0  0  0  0  0  0  0  0  0  0
   43.9460   12.4980    8.0620 S   0  0  0  0  0  0  0  0  0  0  0  0
   34.4530   18.8770   -2.3610 C   0  0  0  0  0  0  0  0  0  0  0  0
   39.0410   13.3540    1.8610 H   0  0  0  0  0  0  0  0  0  0  0  0
   37.0820   13.7910    0.4440 H   0  0  0  0  0  0  0  0  0  0  0  0
   35.5020   15.4270   -0.4700 H   0  0  0  0  0  0  0  0  0  0  0  0
   37.8200   18.6490    1.2330 H   0  0  0  0  0  0  0  0  0  0  0  0
   39.3420   17.0080    2.2160 H   0  0  0  0  0  0  0  0  0  0  0  0
   41.8540   13.7540    4.9660 H   0  0  0  0  0  0  0  0  0  0  0  0
   40.2830   13.0620    4.6500 H   0  0  0  0  0  0  0  0  0  0  0  0
   43.2220   10.2710    5.8090 H   0  0  0  0  0  0  0  0  0  0  0  0
   43.7920   11.8380    5.2920 H   0  0  0  0  0  0  0  0  0  0  0  0
   42.5900    9.6370    3.5670 H   0  0  0  0  0  0  0  0  0  0  0  0
   44.1790   10.3540    3.4240 H   0  0  0  0  0  0  0  0  0  0  0  0
   43.7780   11.3690   -0.8300 H   0  0  0  0  0  0  0  0  0  0  0  0
   43.9510   11.7080   -3.2440 H   0  0  0  0  0  0  0  0  0  0  0  0
   42.7070   13.5780   -4.3440 H   0  0  0  0  0  0  0  0  0  0  0  0
   41.2960   15.0860   -2.9670 H   0  0  0  0  0  0  0  0  0  0  0  0
   41.0700   14.7590   -0.6000 H   0  0  0  0  0  0  0  0  0  0  0  0
   40.8250   14.2430    8.6700 H   0  0  0  0  0  0  0  0  0  0  0  0
   42.7740   15.3630    9.9560 H   0  0  0  0  0  0  0  0  0  0  0  0
   45.0810   14.1320    9.5440 H   0  0  0  0  0  0  0  0  0  0  0  0
   35.4210   17.0440   -1.9030 H   0  0  0  0  0  0  0  0  0  0  0  0
   33.6770   18.3820   -2.9440 H   0  0  0  0  0  0  0  0  0  0  0  0
   33.9990   19.7000   -1.8070 H   0  0  0  0  0  0  0  0  0  0  0  0
   35.1700   19.3090   -3.0600 H   0  0  0  0  0  0  0  0  0  0  0  0
  1  6  1  0  0  0  0
  1  7  1  0  0  0  0
  1 37  1  0  0  0  0
  2 13  1  0  0  0  0
  2 36  1  0  0  0  0
  2 56  1  0  0  0  0
  3 16  1  0  0  0  0
  3 17  1  0  0  0  0
  3 34  1  0  0  0  0
  4  5  1  0  0  0  0
  4 19  2  0  0  0  0
  5 14  1  0  0  0  0
  5 20  1  0  0  0  0
  6 14  1  0  0  0  0
  6 30  2  0  0  0  0
  7  8  1  0  0  0  0
  7 12  2  0  0  0  0
  8  9  2  0  0  0  0
  8 38  1  0  0  0  0
  9 10  1  0  0  0  0
  9 39  1  0  0  0  0
 10 11  2  0  0  0  0
 10 13  1  0  0  0  0
 11 12  1  0  0  0  0
 11 40  1  0  0  0  0
 12 41  1  0  0  0  0
 13 31  2  0  0  0  0
 14 15  2  0  0  0  0
 15 16  1  0  0  0  0
 15 19  1  0  0  0  0
 16 42  1  0  0  0  0
 16 43  1  0  0  0  0
 17 18  1  0  0  0  0
 17 44  1  0  0  0  0
 17 45  1  0  0  0  0
 18 19  1  0  0  0  0
 18 46  1  0  0  0  0
 18 47  1  0  0  0  0
 20 21  1  0  0  0  0
 20 25  2  0  0  0  0
 21 22  2  0  0  0  0
 21 48  1  0  0  0  0
 22 23  1  0  0  0  0
 22 49  1  0  0  0  0
 23 24  2  0  0  0  0
 23 50  1  0  0  0  0
 24 25  1  0  0  0  0
 24 51  1  0  0  0  0
 25 52  1  0  0  0  0
 26 27  2  0  0  0  0
 26 34  1  0  0  0  0
 26 35  1  0  0  0  0
 27 28  1  0  0  0  0
 27 53  1  0  0  0  0
 28 29  2  0  0  0  0
 28 54  1  0  0  0  0
 29 35  1  0  0  0  0
 29 55  1  0  0  0  0
 32 34  2  0  0  0  0
 33 34  2  0  0  0  0
 36 57  1  0  0  0  0
 36 58  1  0  0  0  0
 36 59  1  0  0  0  0
M  END
