../datasets/input/FXR_1/poses/FXR17/ligand.pdb
 OpenBabel02211915413D

 61 65  0  0  0  0  0  0  0  0999 V2000
   39.5050   14.2160    1.7870 N   0  0  0  0  0  0  0  0  0  0  0  0
   35.0570   17.7780   -1.1560 O   0  0  0  0  0  0  0  0  0  0  0  0
   41.7300   11.5500    5.3070 N   0  0  0  0  0  0  0  0  0  0  0  0
   42.9270   11.3860    1.3500 N   0  0  0  0  0  0  0  0  0  0  0  0
   42.3620   12.5170    0.8420 N   0  0  0  0  0  0  0  0  0  0  0  0
   40.8450   14.3700    1.7630 C   0  0  0  0  0  0  0  0  0  0  0  0
   38.5670   15.1960    1.3590 C   0  0  0  0  0  0  0  0  0  0  0  0
   37.4520   14.8160    0.5830 C   0  0  0  0  0  0  0  0  0  0  0  0
   36.6040   15.8020    0.0340 C   0  0  0  0  0  0  0  0  0  0  0  0
   36.8570   17.1820    0.2500 C   0  0  0  0  0  0  0  0  0  0  0  0
   37.9320   17.5470    1.0830 C   0  0  0  0  0  0  0  0  0  0  0  0
   38.7470   16.5600    1.6600 C   0  0  0  0  0  0  0  0  0  0  0  0
   36.0290   18.2620   -0.3560 C   0  0  0  0  0  0  0  0  0  0  0  0
   34.7550   18.7410   -3.3540 C   0  0  0  0  0  0  0  0  0  0  0  0
   34.2390   18.6580   -1.9130 C   0  0  0  0  0  0  0  0  0  0  0  0
   41.6310   13.1360    1.8600 C   0  0  0  0  0  0  0  0  0  0  0  0
   41.8170   12.4630    3.0310 C   0  0  0  0  0  0  0  0  0  0  0  0
   41.4270   12.7240    4.4630 C   0  0  0  0  0  0  0  0  0  0  0  0
   43.0200   10.8670    5.0350 C   0  0  0  0  0  0  0  0  0  0  0  0
   43.1200   10.3490    3.5880 C   0  0  0  0  0  0  0  0  0  0  0  0
   42.6300   11.3850    2.6370 C   0  0  0  0  0  0  0  0  0  0  0  0
   42.5750   12.8310   -0.5410 C   0  0  0  0  0  0  0  0  0  0  0  0
   43.5030   12.0620   -1.2880 C   0  0  0  0  0  0  0  0  0  0  0  0
   43.6810   12.2640   -2.6680 C   0  0  0  0  0  0  0  0  0  0  0  0
   42.9480   13.2640   -3.3280 C   0  0  0  0  0  0  0  0  0  0  0  0
   42.0530   14.0640   -2.6000 C   0  0  0  0  0  0  0  0  0  0  0  0
   41.8700   13.8550   -1.2230 C   0  0  0  0  0  0  0  0  0  0  0  0
   42.3870   12.7110    7.7510 C   0  0  0  0  0  0  0  0  0  0  0  0
   42.0900   13.9040    8.3530 C   0  0  0  0  0  0  0  0  0  0  0  0
   43.2220   14.5040    8.9790 C   0  0  0  0  0  0  0  0  0  0  0  0
   44.3750   13.7830    8.8100 C   0  0  0  0  0  0  0  0  0  0  0  0
   41.4190   15.4460    1.6260 O   0  0  0  0  0  0  0  0  0  0  0  0
   36.2140   19.4650   -0.1550 O   0  0  0  0  0  0  0  0  0  0  0  0
   39.9210   12.2790    6.9870 O   0  0  0  0  0  0  0  0  0  0  0  0
   41.4270   10.2660    7.5140 O   0  0  0  0  0  0  0  0  0  0  0  0
   41.2270   11.6130    6.9570 S   0  0  0  0  0  0  0  0  0  0  0  0
   44.0800   12.3220    7.9100 S   0  0  0  0  0  0  0  0  0  0  0  0
   39.1740   13.2670    1.8900 H   0  0  0  0  0  0  0  0  0  0  0  0
   37.2520   13.7750    0.3690 H   0  0  0  0  0  0  0  0  0  0  0  0
   35.7750   15.4820   -0.5760 H   0  0  0  0  0  0  0  0  0  0  0  0
   38.1340   18.5880    1.2920 H   0  0  0  0  0  0  0  0  0  0  0  0
   39.5380   16.8550    2.3240 H   0  0  0  0  0  0  0  0  0  0  0  0
   35.7790   19.1160   -3.3850 H   0  0  0  0  0  0  0  0  0  0  0  0
   34.1420   19.4140   -3.9510 H   0  0  0  0  0  0  0  0  0  0  0  0
   34.1870   19.6520   -1.4660 H   0  0  0  0  0  0  0  0  0  0  0  0
   33.2230   18.2670   -1.9120 H   0  0  0  0  0  0  0  0  0  0  0  0
   41.9580   13.5890    4.8650 H   0  0  0  0  0  0  0  0  0  0  0  0
   40.3650   12.9540    4.5480 H   0  0  0  0  0  0  0  0  0  0  0  0
   43.1660   10.0370    5.7270 H   0  0  0  0  0  0  0  0  0  0  0  0
   43.8270   11.5690    5.2210 H   0  0  0  0  0  0  0  0  0  0  0  0
   42.5260    9.4460    3.4830 H   0  0  0  0  0  0  0  0  0  0  0  0
   44.1540   10.0890    3.3610 H   0  0  0  0  0  0  0  0  0  0  0  0
   44.0920   11.2940   -0.8090 H   0  0  0  0  0  0  0  0  0  0  0  0
   44.3890   11.6560   -3.2130 H   0  0  0  0  0  0  0  0  0  0  0  0
   43.0960   13.4420   -4.3830 H   0  0  0  0  0  0  0  0  0  0  0  0
   41.5080   14.8470   -3.0970 H   0  0  0  0  0  0  0  0  0  0  0  0
   41.1560   14.4960   -0.7390 H   0  0  0  0  0  0  0  0  0  0  0  0
   41.1040   14.3380    8.3880 H   0  0  0  0  0  0  0  0  0  0  0  0
   43.1490   15.4250    9.5340 H   0  0  0  0  0  0  0  0  0  0  0  0
   45.3690   14.0070    9.1840 H   0  0  0  0  0  0  0  0  0  0  0  0
   34.7360   17.7640   -3.8380 H   0  0  0  0  0  0  0  0  0  0  0  0
  1  6  1  0  0  0  0
  1  7  1  0  0  0  0
  1 38  1  0  0  0  0
  2 13  1  0  0  0  0
  2 15  1  0  0  0  0
  3 18  1  0  0  0  0
  3 19  1  0  0  0  0
  3 36  1  0  0  0  0
  4  5  1  0  0  0  0
  4 21  2  0  0  0  0
  5 16  1  0  0  0  0
  5 22  1  0  0  0  0
  6 16  1  0  0  0  0
  6 32  2  0  0  0  0
  7  8  1  0  0  0  0
  7 12  2  0  0  0  0
  8  9  2  0  0  0  0
  8 39  1  0  0  0  0
  9 10  1  0  0  0  0
  9 40  1  0  0  0  0
 10 11  2  0  0  0  0
 10 13  1  0  0  0  0
 11 12  1  0  0  0  0
 11 41  1  0  0  0  0
 12 42  1  0  0  0  0
 13 33  2  0  0  0  0
 14 15  1  0  0  0  0
 14 43  1  0  0  0  0
 14 44  1  0  0  0  0
 14 61  1  0  0  0  0
 15 45  1  0  0  0  0
 15 46  1  0  0  0  0
 16 17  2  0  0  0  0
 17 18  1  0  0  0  0
 17 21  1  0  0  0  0
 18 47  1  0  0  0  0
 18 48  1  0  0  0  0
 19 20  1  0  0  0  0
 19 49  1  0  0  0  0
 19 50  1  0  0  0  0
 20 21  1  0  0  0  0
 20 51  1  0  0  0  0
 20 52  1  0  0  0  0
 22 23  1  0  0  0  0
 22 27  2  0  0  0  0
 23 24  2  0  0  0  0
 23 53  1  0  0  0  0
 24 25  1  0  0  0  0
 24 54  1  0  0  0  0
 25 26  2  0  0  0  0
 25 55  1  0  0  0  0
 26 27  1  0  0  0  0
 26 56  1  0  0  0  0
 27 57  1  0  0  0  0
 28 29  2  0  0  0  0
 28 36  1  0  0  0  0
 28 37  1  0  0  0  0
 29 30  1  0  0  0  0
 29 58  1  0  0  0  0
 30 31  2  0  0  0  0
 30 59  1  0  0  0  0
 31 37  1  0  0  0  0
 31 60  1  0  0  0  0
 34 36  2  0  0  0  0
 35 36  2  0  0  0  0
M  END
