@<TRIPOS>MOLECULE
26
 43 46 0 0 0
SMALL
GASTEIGER
****
Structure written by MMmdl.
@<TRIPOS>ATOM
      1 O           3.8290  -49.9082    7.3567 O.co2   1  LIG1       -0.5416
      2 C           3.1153  -49.0416    6.8012 C.2     1  LIG1        0.1072
      3 O           3.5513  -47.8977    6.5562 O.co2   1  LIG1       -0.5416
      4 C           1.7057  -49.3580    6.4403 C.ar    1  LIG1        0.1545
      5 C          -0.1076  -50.6487    6.3793 C.ar    1  LIG1        0.1360
      6 C          -1.0211  -51.7084    6.5402 C.ar    1  LIG1       -0.0187
      7 C          -2.3348  -51.5531    6.0492 C.ar    1  LIG1       -0.0582
      8 C          -2.6993  -50.3586    5.3936 C.ar    1  LIG1       -0.0610
      9 C          -1.7635  -49.3099    5.2420 C.ar    1  LIG1       -0.0507
     10 C          -0.4423  -49.4338    5.7433 C.ar    1  LIG1        0.0240
     11 C           0.7328  -48.6071    5.8015 C.ar    1  LIG1        0.0074
     12 C           0.8592  -47.2049    5.2675 C.3     1  LIG1       -0.0204
     13 C           0.9701  -46.1519    6.3924 C.3     1  LIG1       -0.0145
     14 C          -0.0852  -45.0395    6.3276 C.3     1  LIG1        0.0899
     15 O          -1.4118  -45.4805    6.0441 O.3     1  LIG1       -0.4913
     16 C          -2.2386  -45.8040    7.0949 C.ar    1  LIG1        0.1282
     17 C          -4.0387  -46.5572    9.1587 C.ar    1  LIG1       -0.0538
     18 C          -2.7241  -47.0517    9.1502 C.ar    1  LIG1       -0.0577
     19 C          -1.8288  -46.6752    8.1339 C.ar    1  LIG1       -0.0193
     20 H          -0.7241  -52.6191    7.0419 H       1  LIG1        0.0654
     21 H          -3.0568  -52.3474    6.1618 H       1  LIG1        0.0619
     22 H          -3.7027  -50.2338    5.0158 H       1  LIG1        0.0618
     23 H          -2.0623  -48.3873    4.7602 H       1  LIG1        0.0625
     24 H           0.0186  -46.9829    4.6116 H       1  LIG1        0.0316
     25 H           1.7413  -47.1366    4.6230 H       1  LIG1        0.0316
     26 H           1.9528  -45.6851    6.3456 H       1  LIG1        0.0301
     27 H           0.9550  -46.6329    7.3658 H       1  LIG1        0.0301
     28 H           0.1913  -44.3765    5.5164 H       1  LIG1        0.0696
     29 H          -0.0677  -44.4348    7.2308 H       1  LIG1        0.0696
     30 H          -0.8492  -47.1142    8.1369 H       1  LIG1        0.0654
     31 C          -4.4644  -45.6869    8.1312 C.ar    1  LIG1       -0.0144
     32 C          -3.5686  -45.3157    7.0918 C.ar    1  LIG1        0.0238
     33 C          -4.0196  -44.4491    6.0697 C.ar    1  LIG1       -0.0505
     34 C          -5.3473  -43.9766    6.0646 C.ar    1  LIG1       -0.0611
     35 C          -6.2357  -44.3575    7.0895 C.ar    1  LIG1       -0.0612
     36 C          -5.7910  -45.2055    8.1244 C.ar    1  LIG1       -0.0539
     37 H          -3.3603  -44.1405    5.2743 H       1  LIG1        0.0625
     38 H          -5.6744  -43.3185    5.2717 H       1  LIG1        0.0618
     39 H          -7.2548  -43.9991    7.0843 H       1  LIG1        0.0618
     40 H          -6.4744  -45.4962    8.9093 H       1  LIG1        0.0624
     41 H          -2.4004  -47.7370    9.9189 H       1  LIG1        0.0619
     42 H          -4.7163  -46.8570    9.9410 H       1  LIG1        0.0624
     43 O           1.2056  -50.5983    6.7955 O.2     1  LIG1       -0.4533
@<TRIPOS>BOND
     1     1     2   ar
     2     2     3   ar
     3     2     4    1
     4     4    11   ar
     5     4    43   ar
     6     5     6   ar
     7     5    10   ar
     8     5    43   ar
     9     6     7   ar
    10     6    20    1
    11     7     8   ar
    12     7    21    1
    13     8     9   ar
    14     8    22    1
    15     9    10   ar
    16     9    23    1
    17    10    11   ar
    18    11    12    1
    19    12    24    1
    20    12    25    1
    21    12    13    1
    22    13    14    1
    23    13    26    1
    24    13    27    1
    25    14    15    1
    26    14    28    1
    27    14    29    1
    28    15    16    1
    29    16    19   ar
    30    16    32   ar
    31    17    18   ar
    32    17    31   ar
    33    17    42    1
    34    18    19   ar
    35    18    41    1
    36    19    30    1
    37    31    32   ar
    38    31    36   ar
    39    32    33   ar
    40    33    34   ar
    41    33    37    1
    42    34    35   ar
    43    34    38    1
    44    35    36   ar
    45    35    39    1
    46    36    40    1
