MK3
  xed2sdf_05210316543D
 
 44 46  0  0  0  0  0  0  0  0999 V2000
   37.7153    5.8365   13.4583 N   0  0  0  0  0  0  0  0  0  0  0  0
   37.0173    6.1412   14.7977 C   0  0  0  0  0  0  0  0  0  0  0  0
   37.3829    7.5403   15.3341 C   0  0  0  0  0  0  0  0  0  0  0  0
   38.9114    7.7620   15.4291 C   0  0  0  0  0  0  0  0  0  0  0  0
   39.1835    9.1385   15.8446 N   0  0  0  0  0  0  0  0  0  0  0  0
   40.4829    9.5698   16.1594 C   0  0  0  0  0  0  0  0  0  0  0  0
   41.4815    8.7320   16.6725 C   0  0  0  0  0  0  0  0  0  0  0  0
   42.7507    9.2416   16.9423 C   0  0  0  0  0  0  0  0  0  0  0  0
   43.0417   10.5800   16.6715 C   0  0  0  0  0  0  0  0  0  0  0  0
   42.0576   11.4350   16.1601 C   0  0  0  0  0  0  0  0  0  0  0  0
   42.3474   12.8247   15.8293 C   0  0  0  0  0  0  0  0  0  0  0  0
   43.4367   13.7822   16.8006 S   0  0  0  0  0  0  0  0  0  0  0  0
   43.2081   15.1991   15.7938 C   0  0  0  0  0  0  0  0  0  0  0  0
   43.9665   16.4136   16.1781 C   0  0  0  0  0  0  0  0  0  0  0  0
   44.7099   16.3644   17.1824 O   0  5  0  0  0  0  0  0  0  0  0  0
   43.8414   17.4562   15.4971 O   0  0  0  0  0  0  0  0  0  0  0  0
   42.3248   14.9326   14.7527 C   0  0  0  0  0  0  0  0  0  0  0  0
   41.9730   15.8281   13.8004 O   0  0  0  0  0  0  0  0  0  0  0  0
   40.8052   16.5938   14.0882 C   0  0  0  0  0  0  0  0  0  0  0  0
   40.2682   17.2823   12.8312 C   0  0  0  0  0  0  0  0  0  0  0  0
   40.8644   17.0552   11.7553 O   0  5  0  0  0  0  0  0  0  0  0  0
   39.2663   18.0188   12.9662 O   0  0  0  0  0  0  0  0  0  0  0  0
   41.8775   13.6145   14.7795 C   0  0  0  0  0  0  0  0  0  0  0  0
   40.7166   12.9520   13.4197 Br  0  0  0  0  0  0  0  0  0  0  0  0
   40.7763   10.9164   15.9496 C   0  0  0  0  0  0  0  0  0  0  0  0
   39.6100    7.4194   14.0884 C   0  0  0  0  0  0  0  0  0  0  0  0
   39.2402    6.0199   13.5606 C   0  0  0  0  0  0  0  0  0  0  0  0
   35.9326    6.0667   14.7205 H   0  0  0  0  0  0  0  0  0  0  0  0
   37.3195    5.3852   15.5226 H   0  0  0  0  0  0  0  0  0  0  0  0
   36.9559    8.3024   14.6823 H   0  0  0  0  0  0  0  0  0  0  0  0
   36.9345    7.6919   16.3159 H   0  0  0  0  0  0  0  0  0  0  0  0
   39.3608    7.6368   14.4440 H   0  0  0  0  0  0  0  0  0  0  0  0
   38.3889    9.7609   15.8895 H   0  0  0  0  0  0  0  0  0  0  0  0
   41.3036    7.6886   16.8709 H   0  0  0  0  0  0  0  0  0  0  0  0
   43.5109    8.5988   17.3609 H   0  0  0  0  0  0  0  0  0  0  0  0
   44.0391   10.9524   16.8549 H   0  0  0  0  0  0  0  0  0  0  0  0
   40.0209   15.9856   14.5418 H   0  0  0  0  0  0  0  0  0  0  0  0
   41.0678   17.3551   14.8233 H   0  0  0  0  0  0  0  0  0  0  0  0
   39.9928   11.5836   15.6204 H   0  0  0  0  0  0  0  0  0  0  0  0
   39.3375    8.1595   13.3359 H   0  0  0  0  0  0  0  0  0  0  0  0
   40.6918    7.4850   14.2037 H   0  0  0  0  0  0  0  0  0  0  0  0
   39.7044    5.2681   14.1987 H   0  0  0  0  0  0  0  0  0  0  0  0
   39.6700    5.8781   12.5690 H   0  0  0  0  0  0  0  0  0  0  0  0
   37.4536    4.9198   13.0761 H   0  0  0  0  0  0  0  0  0  0  0  0
  2  1  1  0
  3  2  1  0
  4  3  1  0
  5  4  1  0
  6  5  1  0
  7  6  2  0
  8  7  1  0
  9  8  2  0
 10  9  1  0
 11 10  1  0
 12 11  1  0
 13 12  1  0
 14 13  1  0
 15 14  1  0
 16 14  2  0
 17 13  2  0
 18 17  1  0
 19 18  1  0
 20 19  1  0
 21 20  1  0
 22 20  2  0
 23 11  2  0
 23 17  1  0
 24 23  1  0
 25  6  1  0
 25 10  2  0
 26  4  1  0
 27  1  1  0
 27 26  1  0
  1 44  1  0
 28  2  1  0
 29  2  1  0
 30  3  1  0
 31  3  1  0
 32  4  1  0
 33  5  1  0
 34  7  1  0
 35  8  1  0
 36  9  1  0
 37 19  1  0
 38 19  1  0
 39 25  1  0
 40 26  1  0
 41 26  1  0
 42 27  1  0
 43 27  1  0
M  CHG  2  15  -1  21  -1
M  END
>  <Favorite_cresset>
false

>  <MW_cresset>
453.3

>  <#Atoms_cresset>
27

>  <SlogP_cresset>
3.6

>  <TPSA_cresset>
113.5

>  <Flexibility_cresset>
5

>  <#RB_cresset>
7

>  <Rof5_cresset>
0

>  <Filename_cresset>
ptp1b_lig22.mol2

>  <_cresset_fieldpoints>
    -5      37.089668       7.145714      12.209499    -10.3635
    -5      41.103256      10.652702      19.113480     -4.4086
    -5      38.940628       8.549833      18.263523     -3.6477
    -5      45.301346      18.179764      17.042137    -12.9318
    -5      42.359161       9.683021      13.671673     -4.9782
    -5      42.443527      15.974479      11.697647    -13.5548
    -5      43.534714      17.627823      13.615198    -10.6860
    -5      45.395729      15.264694      18.591379     -9.5834
    -5      39.078274      18.568422      11.142042    -11.7214
    -5      39.914463      18.081875      10.511900    -12.0299
    -6      37.049728       3.417621      12.490486      8.7522
    -6      37.567387      11.481131      15.713949      9.5490
    -6      41.448704       5.627833      16.145226      2.3641
    -6      43.156883       6.278210      17.658962      1.9564
    -6      39.539680      14.911877      16.377655      4.4471
    -7      37.993183       3.072559      14.182043     -1.4874
    -7      37.046497       8.037947      12.014767     -2.1537
    -7      34.199097       8.105713      15.317342     -1.0954
    -7      42.008717       9.609945      13.170975     -3.2573
    -7      38.296127      10.478132      13.505092     -3.1960
    -7      38.229786       8.848106      18.451275     -2.0776
    -7      45.029999      12.284006      14.177834     -2.3732
    -7      39.260590      14.106512      16.549427     -2.7476
    -7      41.290627      12.529657      19.115444     -2.1369
    -7      42.912392      16.115551      19.032639     -1.5525
    -7      46.524483      14.727255      16.438343     -1.5539
    -7      42.075798      18.628811      16.764954     -1.5508
    -7      43.698112      17.792110      13.141750     -2.0936
    -7      42.258514      15.162611      11.215961     -2.2571
    -7      38.060875      15.160313      12.923187     -1.6654
    -7      40.447075       5.352639      16.729137     -2.2334
    -8      38.504723       7.092607      14.664801      5.6068
    -8      41.788116      10.096529      16.424110      6.9476
    -8      42.714272      14.003014      15.734069      7.0322
    -8      41.517822      12.238148      15.388655      5.5072
    -8      41.423340      12.819442      14.637471      5.5060
    -8      40.243637      16.874714      14.248456      2.4950

$$$$
