# Molecule written by the XED library from Cresset
@<TRIPOS>MOLECULE
mk3
    46     49      1
SMALL
USER_CHARGES
@<TRIPOS>ATOM
      1  C          11.7149   -2.1703    1.1860 C.3       1 MOL1        0.0242
      2  N          13.0472   -2.4712    0.6536 N.am      1 MOL1       -0.1264
      3  C          14.2073   -2.4898    1.3303 C.2       1 MOL1        0.0209
      4  N          14.3600   -2.2951    2.6436 N.am      1 MOL1       -0.2415
      5  N          15.2416   -2.7547    0.5321 N.pl3     1 MOL1       -0.1551
      6  C          14.8171   -3.0611   -0.8292 C.3       1 MOL1        0.1374
      7  C          15.0769   -4.5788   -1.0200 C.ar      1 MOL1       -0.0328
      8  C          14.2713   -5.5613   -0.3782 C.ar      1 MOL1       -0.0831
      9  C          14.5685   -6.9356   -0.4681 C.ar      1 MOL1       -0.0900
     10  C          15.6910   -7.3653   -1.1928 C.ar      1 MOL1       -0.0905
     11  C          16.5199   -6.4110   -1.8044 C.ar      1 MOL1       -0.0900
     12  C          16.2187   -5.0421   -1.7029 C.ar      1 MOL1       -0.0831
     13  C          15.3779   -2.0328   -1.8475 C.ar      1 MOL1       -0.0319
     14  C          15.7357   -2.3800   -3.1722 C.ar      1 MOL1       -0.0830
     15  C          16.2339   -1.4073   -4.0510 C.ar      1 MOL1       -0.0890
     16  C          16.2513   -0.0546   -3.6768 C.ar      1 MOL1       -0.0812
     17  C          15.7990    0.3581   -2.4048 C.ar      1 MOL1       -0.0205
     18  C          15.6221    1.8005   -2.0869 C.ar      1 MOL1       -0.0161
     19  C          15.3734    2.7533   -3.1056 C.ar      1 MOL1       -0.0869
     20  N          15.0849    4.0532   -2.8896 C.ar      1 MOL1       -0.0832
     21  C          15.0308    4.4848   -1.6167 C.ar      1 MOL1       -0.0640
     22  C          15.2978    3.6534   -0.5188 C.ar      1 MOL1        0.0440
     23  CL         15.2309    4.2779    1.0891 Cl        1 MOL1       -0.1083
     24  C          15.6053    2.3015   -0.7646 C.ar      1 MOL1       -0.0557
     25  C          15.4327   -0.6575   -1.4875 C.ar      1 MOL1       -0.0740
     26  C          13.3072   -2.7857   -0.7105 C.2       1 MOL1        0.1988
     27  O          12.4452   -2.8374   -1.5962 O.2       1 MOL1       -0.4592
     28  H          11.5254   -1.1038    1.0826 H         1 MOL1        0.0548
     29  H          10.9387   -2.7032    0.6371 H         1 MOL1        0.0548
     30  H          11.6394   -2.4492    2.2395 H         1 MOL1        0.0548
     31  H          15.2989   -2.3284    3.0413 H         1 MOL1        0.1868
     32  H          16.2147   -2.8175    0.8299 H         1 MOL1        0.2203
     33  H          13.4192   -5.2899    0.2243 H         1 MOL1        0.0908
     34  H          13.9459   -7.6597    0.0348 H         1 MOL1        0.0906
     35  H          15.9302   -8.4166   -1.2497 H         1 MOL1        0.0906
     36  H          17.4132   -6.7099   -2.3269 H         1 MOL1        0.0906
     37  H          16.9004   -4.3391   -2.1394 H         1 MOL1        0.0908
     38  H          15.6492   -3.3892   -3.5498 H         1 MOL1        0.0908
     39  H          16.5692   -1.6944   -5.0379 H         1 MOL1        0.0906
     40  H          16.5827    0.6668   -4.4089 H         1 MOL1        0.0910
     41  H          15.3362    2.4537   -4.1432 H         1 MOL1        0.0910
     42  H          14.7752    5.5227   -1.4712 H         1 MOL1        0.0939
     43  H          15.8106    1.6512    0.0680 H         1 MOL1        0.0943
     44  H          15.0959   -0.3619   -0.5079 H         1 MOL1        0.0912
     45  H          13.6148   -2.0122    3.2793 H         1 MOL1        0.1868
     46  H          14.8978    4.6727   -3.6519 H         1 MOL1        0.0906
@<TRIPOS>BOND
     1      1      2 1 
     2      2      3 am
     3      2     26 am
     4      3      4 am
     5      3      5 2 
     6      5      6 1 
     7      6      7 1 
     8      6     13 1 
     9      6     26 1 
    10      7      8 ar
    11      7     12 ar
    12      8      9 ar
    13      9     10 ar
    14     10     11 ar
    15     11     12 ar
    16     13     14 ar
    17     13     25 ar
    18     14     15 ar
    19     15     16 ar
    20     16     17 ar
    21     17     18 1 
    22     17     25 ar
    23     18     19 ar
    24     18     24 ar
    25     19     20 ar
    26     20     21 ar
    27     21     22 ar
    28     22     23 1 
    29     22     24 ar
    30     26     27 2 
    31      1     28 1 
    32      1     29 1 
    33      1     30 1 
    34      4     31 1 
    35      4     45 1 
    36      5     32 1 
    37      8     33 1 
    38      9     34 1 
    39     10     35 1 
    40     11     36 1 
    41     12     37 1 
    42     14     38 1 
    43     15     39 1 
    44     16     40 1 
    45     19     41 1 
    46     20     46 1 
    47     21     42 1 
    48     24     43 1 
    49     25     44 1 
@<TRIPOS>SUBSTRUCTURE
     1 MOL1         1 MOLECULE          1 A
