mk3
 OpenBabel02251910023D

 46 49  0  0  1  0  0  0  0  0999 V2000
   11.7149   -2.1703    1.1860 C   0  0  0  0  0  0  0  0  0  0  0  0
   13.0472   -2.4712    0.6536 N   0  0  0  0  0  0  0  0  0  0  0  0
   14.2073   -2.4898    1.3303 C   0  0  0  0  0  0  0  0  0  0  0  0
   14.3600   -2.2951    2.6436 N   0  0  0  0  0  0  0  0  0  0  0  0
   15.2416   -2.7547    0.5321 N   0  0  0  0  0  0  0  0  0  0  0  0
   14.8171   -3.0611   -0.8292 C   0  0  2  0  0  0  0  0  0  0  0  0
   15.0769   -4.5788   -1.0200 C   0  0  0  0  0  0  0  0  0  0  0  0
   14.2713   -5.5613   -0.3782 C   0  0  0  0  0  0  0  0  0  0  0  0
   14.5685   -6.9356   -0.4681 C   0  0  0  0  0  0  0  0  0  0  0  0
   15.6910   -7.3653   -1.1928 C   0  0  0  0  0  0  0  0  0  0  0  0
   16.5199   -6.4110   -1.8044 C   0  0  0  0  0  0  0  0  0  0  0  0
   16.2187   -5.0421   -1.7029 C   0  0  0  0  0  0  0  0  0  0  0  0
   15.3779   -2.0328   -1.8475 C   0  0  0  0  0  0  0  0  0  0  0  0
   15.7357   -2.3800   -3.1722 C   0  0  0  0  0  0  0  0  0  0  0  0
   16.2339   -1.4073   -4.0510 C   0  0  0  0  0  0  0  0  0  0  0  0
   16.2513   -0.0546   -3.6768 C   0  0  0  0  0  0  0  0  0  0  0  0
   15.7990    0.3581   -2.4048 C   0  0  0  0  0  0  0  0  0  0  0  0
   15.6221    1.8005   -2.0869 C   0  0  0  0  0  0  0  0  0  0  0  0
   15.3734    2.7533   -3.1056 C   0  0  0  0  0  0  0  0  0  0  0  0
   15.0849    4.0532   -2.8896 C   0  0  0  0  0  0  0  0  0  0  0  0
   15.0308    4.4848   -1.6167 C   0  0  0  0  0  0  0  0  0  0  0  0
   15.2978    3.6534   -0.5188 C   0  0  0  0  0  0  0  0  0  0  0  0
   15.2309    4.2779    1.0891 Cl  0  0  0  0  0  0  0  0  0  0  0  0
   15.6053    2.3015   -0.7646 C   0  0  0  0  0  0  0  0  0  0  0  0
   15.4327   -0.6575   -1.4875 C   0  0  0  0  0  0  0  0  0  0  0  0
   13.3072   -2.7857   -0.7105 C   0  0  0  0  0  0  0  0  0  0  0  0
   12.4452   -2.8374   -1.5962 O   0  0  0  0  0  0  0  0  0  0  0  0
   11.5254   -1.1038    1.0826 H   0  0  0  0  0  0  0  0  0  0  0  0
   10.9387   -2.7032    0.6371 H   0  0  0  0  0  0  0  0  0  0  0  0
   11.6394   -2.4492    2.2395 H   0  0  0  0  0  0  0  0  0  0  0  0
   15.2989   -2.3284    3.0413 H   0  0  0  0  0  0  0  0  0  0  0  0
   16.2147   -2.8175    0.8299 H   0  0  0  0  0  0  0  0  0  0  0  0
   13.4192   -5.2899    0.2243 H   0  0  0  0  0  0  0  0  0  0  0  0
   13.9459   -7.6597    0.0348 H   0  0  0  0  0  0  0  0  0  0  0  0
   15.9302   -8.4166   -1.2497 H   0  0  0  0  0  0  0  0  0  0  0  0
   17.4132   -6.7099   -2.3269 H   0  0  0  0  0  0  0  0  0  0  0  0
   16.9004   -4.3391   -2.1394 H   0  0  0  0  0  0  0  0  0  0  0  0
   15.6492   -3.3892   -3.5498 H   0  0  0  0  0  0  0  0  0  0  0  0
   16.5692   -1.6944   -5.0379 H   0  0  0  0  0  0  0  0  0  0  0  0
   16.5827    0.6668   -4.4089 H   0  0  0  0  0  0  0  0  0  0  0  0
   15.3362    2.4537   -4.1432 H   0  0  0  0  0  0  0  0  0  0  0  0
   14.7752    5.5227   -1.4712 H   0  0  0  0  0  0  0  0  0  0  0  0
   15.8106    1.6512    0.0680 H   0  0  0  0  0  0  0  0  0  0  0  0
   15.0959   -0.3619   -0.5079 H   0  0  0  0  0  0  0  0  0  0  0  0
   13.6148   -2.0122    3.2793 H   0  0  0  0  0  0  0  0  0  0  0  0
   14.8978    4.6727   -3.6519 H   0  0  0  0  0  0  0  0  0  0  0  0
  1  2  1  0  0  0  0
  1 28  1  0  0  0  0
  1 29  1  0  0  0  0
  1 30  1  0  0  0  0
  2  3  1  0  0  0  0
  2 26  1  0  0  0  0
  3  4  1  0  0  0  0
  3  5  2  0  0  0  0
  4 31  1  0  0  0  0
  4 45  1  0  0  0  0
  5  6  1  0  0  0  0
  5 32  1  0  0  0  0
  6  7  1  6  0  0  0
  6 13  1  0  0  0  0
  6 26  1  0  0  0  0
  7  8  2  0  0  0  0
  7 12  1  0  0  0  0
  8  9  1  0  0  0  0
  8 33  1  0  0  0  0
  9 10  2  0  0  0  0
  9 34  1  0  0  0  0
 10 11  1  0  0  0  0
 10 35  1  0  0  0  0
 11 12  2  0  0  0  0
 11 36  1  0  0  0  0
 12 37  1  0  0  0  0
 13 14  2  0  0  0  0
 13 25  1  0  0  0  0
 14 15  1  0  0  0  0
 14 38  1  0  0  0  0
 15 16  2  0  0  0  0
 15 39  1  0  0  0  0
 16 17  1  0  0  0  0
 16 40  1  0  0  0  0
 17 18  1  0  0  0  0
 17 25  2  0  0  0  0
 18 19  2  0  0  0  0
 18 24  1  0  0  0  0
 19 20  1  0  0  0  0
 19 41  1  0  0  0  0
 20 21  2  0  0  0  0
 20 46  1  0  0  0  0
 21 22  1  0  0  0  0
 21 42  1  0  0  0  0
 22 23  1  0  0  0  0
 22 24  2  0  0  0  0
 24 43  1  0  0  0  0
 25 44  1  0  0  0  0
 26 27  2  0  0  0  0
M  END
$$$$
