@<TRIPOS>MOLECULE
1b
 52 54 0 0 0
SMALL
GASTEIGER
****

@<TRIPOS>ATOM
      1 N          18.2653  -13.2407   21.7065 N.am    1  UNL1       -0.2853
      2 C          18.0666  -11.9445   21.0290 C.3     1  UNL1        0.1024
      3 C          17.3965  -13.7802   22.5963 C.2     1  UNL1        0.2646
      4 O          16.3982  -13.1682   22.9797 O.2     1  UNL1       -0.2694
      5 C          16.6625  -11.7536   20.4056 C.2     1  UNL1        0.2338
      6 O          16.1638  -12.6466   19.7188 O.2     1  UNL1       -0.2738
      7 C          19.1633  -11.8944   19.9556 C.3     1  UNL1       -0.0243
      8 C          17.6504  -15.1803   23.1883 C.3     1  UNL1        0.0574
      9 N          16.0423  -10.5938   20.6504 N.am    1  UNL1       -0.3097
     10 C          20.2631  -12.8149   20.4461 C.3     1  UNL1       -0.0350
     11 N          16.4086  -15.9682   23.1113 N.4     1  UNL1        0.2276
     12 C          18.1359  -15.1116   24.6549 C.3     1  UNL1        0.0241
     13 C          14.7042  -10.2162   20.2151 C.3     1  UNL1        0.0369
     14 C          19.5455  -13.8412   21.3148 C.3     1  UNL1        0.0157
     15 C          19.5607  -14.6147   24.8273 C.ar    1  UNL1       -0.0415
     16 C          13.6411  -10.3567   21.2915 C.ar    1  UNL1       -0.0289
     17 C          19.8041  -13.3098   25.2934 C.ar    1  UNL1       -0.0584
     18 C          12.9051  -11.5528   21.4232 C.ar    1  UNL1       -0.0570
     19 C          21.1138  -12.8171   25.3982 C.ar    1  UNL1       -0.0615
     20 C          11.8942  -11.6572   22.4010 C.ar    1  UNL1       -0.0601
     21 C          22.2000  -13.6406   25.0541 C.ar    1  UNL1       -0.0617
     22 C          11.6200  -10.5698   23.2551 C.ar    1  UNL1       -0.0434
     23 C          21.9704  -14.9618   24.6258 C.ar    1  UNL1       -0.0615
     24 C          12.3724   -9.3839   23.1465 C.ar    1  UNL1        0.0413
     25 C          20.6532  -15.4491   24.5107 C.ar    1  UNL1       -0.0584
     26 C          13.3735   -9.2784   22.1614 C.ar    1  UNL1       -0.0387
     27 CL         12.1062   -8.0755   24.2428 Cl      1  UNL1       -0.0835
     28 H          18.2473  -11.1607   21.7642 H       1  UNL1        0.0597
     29 H          18.7918  -12.2521   18.9936 H       1  UNL1        0.0288
     30 H          19.5370  -10.8863   19.8145 H       1  UNL1        0.0288
     31 H          18.3784  -15.7341   22.5976 H       1  UNL1        0.0952
     32 H          16.5623   -9.8919   21.1770 H       1  UNL1        0.1491
     33 H          20.8307  -13.2708   19.6333 H       1  UNL1        0.0281
     34 H          20.9665  -12.2499   21.0595 H       1  UNL1        0.0281
     35 H          16.5518  -16.8840   23.5090 H       1  UNL1        0.2002
     36 H          15.6837  -15.4790   23.6232 H       1  UNL1        0.2002
     37 H          16.1247  -16.0522   22.1464 H       1  UNL1        0.2002
     38 H          17.4587  -14.4914   25.2462 H       1  UNL1        0.0373
     39 H          18.0854  -16.1036   25.1053 H       1  UNL1        0.0373
     40 H          14.7425   -9.1642   19.9392 H       1  UNL1        0.0512
     41 H          14.4054  -10.7643   19.3193 H       1  UNL1        0.0512
     42 H          20.1632  -14.1035   22.1724 H       1  UNL1        0.0465
     43 H          19.3599  -14.7477   20.7373 H       1  UNL1        0.0465
     44 H          18.9902  -12.6794   25.5932 H       1  UNL1        0.0620
     45 H          13.1151  -12.3914   20.7737 H       1  UNL1        0.0621
     46 H          21.2718  -11.8120   25.7585 H       1  UNL1        0.0618
     47 H          11.3295  -12.5741   22.5024 H       1  UNL1        0.0618
     48 H          23.2097  -13.2677   25.1383 H       1  UNL1        0.0618
     49 H          22.8078  -15.6009   24.3847 H       1  UNL1        0.0618
     50 H          20.4886  -16.4600   24.1662 H       1  UNL1        0.0620
     51 H          13.9512   -8.3702   22.0898 H       1  UNL1        0.0635
     52 H          10.8471  -10.6549   24.0065 H       1  UNL1        0.0632
@<TRIPOS>BOND
     1     1     2    1
     2     1     3   am
     3     1    14    1
     4     2     5    1
     5     2     7    1
     6     3     4    2
     7     3     8    1
     8     5     6    2
     9     5     9   am
    10     7    10    1
    11     8    11    1
    12     8    12    1
    13     9    13    1
    14    10    14    1
    15    12    15    1
    16    13    16    1
    17    15    17   ar
    18    15    25   ar
    19    16    18   ar
    20    16    26   ar
    21    17    19   ar
    22    18    20   ar
    23    19    21   ar
    24    20    22   ar
    25    21    23   ar
    26    22    24   ar
    27    23    25   ar
    28    24    26   ar
    29    24    27    1
    30     2    28    1
    31     7    29    1
    32     7    30    1
    33     8    31    1
    34     9    32    1
    35    10    33    1
    36    10    34    1
    37    11    35    1
    38    11    36    1
    39    11    37    1
    40    12    38    1
    41    12    39    1
    42    13    40    1
    43    13    41    1
    44    14    42    1
    45    14    43    1
    46    17    44    1
    47    18    45    1
    48    19    46    1
    49    20    47    1
    50    21    48    1
    51    22    52    1
    52    23    49    1
    53    25    50    1
    54    26    51    1
