# created with PyMOL 1.8.4.0
@<TRIPOS>MOLECULE
CAT-13h
43 46 1                 
SMALL
USER_CHARGES
@<TRIPOS>ATOM
1	   N	13.077	-2.419	0.625	N.pl3	1	UNL1	-0.164	
2	   N	14.393	-2.270	2.619	N.pl3	1	UNL1	-0.254	
3	   N	15.245	-2.886	0.539	N.pl3	1	UNL1	-0.262	
4	   C	11.768	-1.996	1.132	C.3	1	UNL1	0.057	
5	   C	14.229	-2.504	1.314	C.cat	1	UNL1	0.337	
6	   C	14.808	-3.196	-0.819	C.3	1	UNL1	0.207	
7	   C	15.485	-2.179	-1.799	C.2	1	UNL1	0.004	
8	   C	16.173	-2.519	-2.993	C.2	1	UNL1	-0.054	
9	   C	16.653	-1.525	-3.862	C.2	1	UNL1	-0.061	
10	   C	16.449	-0.169	-3.571	C.2	1	UNL1	-0.054	
11	   C	15.825	0.233	-2.376	C.2	1	UNL1	-0.018	
12	   C	15.594	1.673	-2.093	C.2	1	UNL1	-0.016	
13	   C	15.334	2.586	-3.144	C.2	1	UNL1	-0.054	
14	   C	15.030	3.937	-2.882	C.2	1	UNL1	-0.060	
15	   C	15.003	4.410	-1.561	C.2	1	UNL1	-0.043	
16	   C	15.302	3.536	-0.505	C.2	1	UNL1	0.042	
17	   C	15.592	2.181	-0.773	C.2	1	UNL1	-0.036	
18	   C	15.379	-0.786	-1.500	C.2	1	UNL1	-0.047	
19	   C	14.914	-4.763	-0.986	C.3	1	UNL1	0.019	
20	   C	14.887	-5.450	-2.333	C.3	1	UNL1	-0.043	
21	   C	16.153	-5.445	-1.520	C.3	1	UNL1	-0.043	
22	   C	13.320	-2.807	-0.725	C.2	1	UNL1	0.322	
23	   O	12.461	-2.839	-1.613	O.2	1	UNL1	-0.253	
24	  CL	15.300	4.139	1.111	Cl	1	UNL1	-0.083	
25	 Cl1	14.041	-5.650	0.273	Cl	1	UNL1	0.000	
26	   H	11.669	-2.227	2.192	 H	1	UNL1	0.060	
27	   H	11.658	-0.922	0.990	 H	1	UNL1	0.060	
28	   H	10.956	-2.493	0.602	 H	1	UNL1	0.060	
29	   H	13.658	-1.950	3.247	 H	1	UNL1	0.241	
30	   H	16.219	-2.949	0.839	 H	1	UNL1	0.259	
31	   H	16.361	-3.521	-3.323	 H	1	UNL1	0.062	
32	   H	17.160	-1.803	-4.776	 H	1	UNL1	0.062	
33	   H	16.778	0.569	-4.285	 H	1	UNL1	0.062	
34	   H	15.317	2.243	-4.169	 H	1	UNL1	0.062	
35	   H	14.787	4.613	-3.688	 H	1	UNL1	0.062	
36	   H	14.751	5.441	-1.355	 H	1	UNL1	0.063	
37	   H	15.818	1.527	0.051	 H	1	UNL1	0.064	
38	   H	14.880	-0.471	-0.596	 H	1	UNL1	0.063	
39	   H	14.356	-6.397	-2.416	 H	1	UNL1	0.027	
40	   H	14.823	-4.830	-3.213	 H	1	UNL1	0.027	
41	   H	16.965	-4.820	-1.843	 H	1	UNL1	0.027	
42	   H	16.462	-6.380	-1.057	 H	1	UNL1	0.027	
43	   H	15.329	-2.334	3.023	 H	1	UNL1	0.241	
@<TRIPOS>BOND
1 1 5 1
2 1 22 1
3 2 29 1
4 2 43 1
5 3 6 1
6 3 30 1
7 1 4 1
8 4 26 1
9 4 27 1
10 4 28 1
11 2 5 1
12 3 5 2
13 6 7 1
14 6 19 1
15 6 22 1
16 7 8 ar
17 7 18 ar
18 8 9 ar
19 8 31 1
20 9 10 ar
21 9 32 1
22 10 11 ar
23 10 33 1
24 11 12 1
25 11 18 ar
26 12 13 ar
27 12 17 ar
28 13 14 ar
29 13 34 1
30 14 15 ar
31 14 35 1
32 15 16 ar
33 15 36 1
34 16 17 ar
35 16 24 1
36 17 37 1
37 18 38 1
38 19 20 1
39 19 21 1
40 19 25 1
41 20 21 1
42 20 39 1
43 20 40 1
44 21 41 1
45 21 42 1
46 22 23 2
@<TRIPOS>SUBSTRUCTURE
1	UNL1	1	GROUP	1 ****	UNL
