CAT-13h
 OpenBabel02251910023D

 43 46  0  0  1  0  0  0  0  0999 V2000
   13.0770   -2.4190    0.6250 N   0  0  0  0  0  0  0  0  0  0  0  0
   14.3930   -2.2700    2.6190 N   0  0  0  0  0  0  0  0  0  0  0  0
   15.2450   -2.8860    0.5390 N   0  0  0  0  0  0  0  0  0  0  0  0
   11.7680   -1.9960    1.1320 C   0  0  0  0  0  0  0  0  0  0  0  0
   14.2290   -2.5040    1.3140 C   0  0  0  0  0  0  0  0  0  0  0  0
   14.8080   -3.1960   -0.8190 C   0  0  1  0  0  0  0  0  0  0  0  0
   15.4850   -2.1790   -1.7990 C   0  0  0  0  0  0  0  0  0  0  0  0
   16.1730   -2.5190   -2.9930 C   0  0  0  0  0  0  0  0  0  0  0  0
   16.6530   -1.5250   -3.8620 C   0  0  0  0  0  0  0  0  0  0  0  0
   16.4490   -0.1690   -3.5710 C   0  0  0  0  0  0  0  0  0  0  0  0
   15.8250    0.2330   -2.3760 C   0  0  0  0  0  0  0  0  0  0  0  0
   15.5940    1.6730   -2.0930 C   0  0  0  0  0  0  0  0  0  0  0  0
   15.3340    2.5860   -3.1440 C   0  0  0  0  0  0  0  0  0  0  0  0
   15.0300    3.9370   -2.8820 C   0  0  0  0  0  0  0  0  0  0  0  0
   15.0030    4.4100   -1.5610 C   0  0  0  0  0  0  0  0  0  0  0  0
   15.3020    3.5360   -0.5050 C   0  0  0  0  0  0  0  0  0  0  0  0
   15.5920    2.1810   -0.7730 C   0  0  0  0  0  0  0  0  0  0  0  0
   15.3790   -0.7860   -1.5000 C   0  0  0  0  0  0  0  0  0  0  0  0
   14.9140   -4.7630   -0.9860 C   0  0  0  0  0  0  0  0  0  0  0  0
   14.8870   -5.4500   -2.3330 C   0  0  0  0  0  0  0  0  0  0  0  0
   16.1530   -5.4450   -1.5200 C   0  0  0  0  0  0  0  0  0  0  0  0
   13.3200   -2.8070   -0.7250 C   0  0  0  0  0  0  0  0  0  0  0  0
   12.4610   -2.8390   -1.6130 O   0  0  0  0  0  0  0  0  0  0  0  0
   15.3000    4.1390    1.1110 Cl  0  0  0  0  0  0  0  0  0  0  0  0
   14.0410   -5.6500    0.2730 Cl  0  0  0  0  0  0  0  0  0  0  0  0
   11.6690   -2.2270    2.1920 H   0  0  0  0  0  0  0  0  0  0  0  0
   11.6580   -0.9220    0.9900 H   0  0  0  0  0  0  0  0  0  0  0  0
   10.9560   -2.4930    0.6020 H   0  0  0  0  0  0  0  0  0  0  0  0
   13.6580   -1.9500    3.2470 H   0  0  0  0  0  0  0  0  0  0  0  0
   16.2190   -2.9490    0.8390 H   0  0  0  0  0  0  0  0  0  0  0  0
   16.3610   -3.5210   -3.3230 H   0  0  0  0  0  0  0  0  0  0  0  0
   17.1600   -1.8030   -4.7760 H   0  0  0  0  0  0  0  0  0  0  0  0
   16.7780    0.5690   -4.2850 H   0  0  0  0  0  0  0  0  0  0  0  0
   15.3170    2.2430   -4.1690 H   0  0  0  0  0  0  0  0  0  0  0  0
   14.7870    4.6130   -3.6880 H   0  0  0  0  0  0  0  0  0  0  0  0
   14.7510    5.4410   -1.3550 H   0  0  0  0  0  0  0  0  0  0  0  0
   15.8180    1.5270    0.0510 H   0  0  0  0  0  0  0  0  0  0  0  0
   14.8800   -0.4710   -0.5960 H   0  0  0  0  0  0  0  0  0  0  0  0
   14.3560   -6.3970   -2.4160 H   0  0  0  0  0  0  0  0  0  0  0  0
   14.8230   -4.8300   -3.2130 H   0  0  0  0  0  0  0  0  0  0  0  0
   16.9650   -4.8200   -1.8430 H   0  0  0  0  0  0  0  0  0  0  0  0
   16.4620   -6.3800   -1.0570 H   0  0  0  0  0  0  0  0  0  0  0  0
   15.3290   -2.3340    3.0230 H   0  0  0  0  0  0  0  0  0  0  0  0
  1  5  1  0  0  0  0
  1 22  1  0  0  0  0
  1  4  1  0  0  0  0
  2 29  1  0  0  0  0
  2 43  1  0  0  0  0
  2  5  1  0  0  0  0
  3  6  1  0  0  0  0
  3 30  1  0  0  0  0
  3  5  2  0  0  0  0
  4 26  1  0  0  0  0
  4 27  1  0  0  0  0
  4 28  1  0  0  0  0
  6  7  1  6  0  0  0
  6 19  1  0  0  0  0
  6 22  1  0  0  0  0
  7  8  2  0  0  0  0
  7 18  1  0  0  0  0
  8  9  1  0  0  0  0
  8 31  1  0  0  0  0
  9 10  2  0  0  0  0
  9 32  1  0  0  0  0
 10 11  1  0  0  0  0
 10 33  1  0  0  0  0
 11 12  1  0  0  0  0
 11 18  2  0  0  0  0
 12 13  2  0  0  0  0
 12 17  1  0  0  0  0
 13 14  1  0  0  0  0
 13 34  1  0  0  0  0
 14 15  2  0  0  0  0
 14 35  1  0  0  0  0
 15 16  1  0  0  0  0
 15 36  1  0  0  0  0
 16 17  2  0  0  0  0
 16 24  1  0  0  0  0
 17 37  1  0  0  0  0
 18 38  1  0  0  0  0
 19 20  1  0  0  0  0
 19 21  1  0  0  0  0
 19 25  1  0  0  0  0
 20 21  1  0  0  0  0
 20 39  1  0  0  0  0
 20 40  1  0  0  0  0
 21 41  1  0  0  0  0
 21 42  1  0  0  0  0
 22 23  2  0  0  0  0
M  END
$$$$
