../datasets/input/FXR_2/poses/FXR74/ligand.pdb
 OpenBabel02211915413D

 57 61  0  0  0  0  0  0  0  0999 V2000
   40.6960   14.5320    1.6390 N   0  0  0  0  0  0  0  0  0  0  0  0
   44.4390   11.5400    3.1050 N   0  0  0  0  0  0  0  0  0  0  0  0
   35.8800   18.5530   -0.7550 C   0  0  0  0  0  0  0  0  0  0  0  0
   36.8000   17.6900    0.0560 C   0  0  0  0  0  0  0  0  0  0  0  0
   38.1900   17.8990    0.0430 C   0  0  0  0  0  0  0  0  0  0  0  0
   39.0470   17.0690    0.7980 C   0  0  0  0  0  0  0  0  0  0  0  0
   38.5280   15.9450    1.4740 C   0  0  0  0  0  0  0  0  0  0  0  0
   39.4150   14.9630    2.2230 C   0  0  0  0  0  0  0  0  0  0  0  0
   41.6240   13.9150    2.3950 C   0  0  0  0  0  0  0  0  0  0  0  0
   42.7890   13.3780    1.5310 C   0  0  0  0  0  0  0  0  0  0  0  0
   42.7120   11.8490    1.3840 C   0  0  0  0  0  0  0  0  0  0  0  0
   43.1060   11.1190    2.6600 C   0  0  0  0  0  0  0  0  0  0  0  0
   44.6220   12.9960    3.2950 C   0  0  0  0  0  0  0  0  0  0  0  0
   44.1920   13.7800    2.0370 C   0  0  0  0  0  0  0  0  0  0  0  0
   44.1560    9.9690    5.3500 C   0  0  0  0  0  0  0  0  0  0  0  0
   43.6290   11.0520    6.0880 C   0  0  0  0  0  0  0  0  0  0  0  0
   42.6530   10.8500    7.0820 C   0  0  0  0  0  0  0  0  0  0  0  0
   42.1850    9.5550    7.3500 C   0  0  0  0  0  0  0  0  0  0  0  0
   42.7030    8.4730    6.6220 C   0  0  0  0  0  0  0  0  0  0  0  0
   43.6770    8.6580    5.6220 C   0  0  0  0  0  0  0  0  0  0  0  0
   42.4070   14.0010    0.2170 C   0  0  0  0  0  0  0  0  0  0  0  0
   43.1240   13.9320   -0.9910 C   0  0  0  0  0  0  0  0  0  0  0  0
   42.5120   14.4260   -2.1570 C   0  0  0  0  0  0  0  0  0  0  0  0
   41.2030   14.9470   -2.1010 C   0  0  0  0  0  0  0  0  0  0  0  0
   40.4920   14.9950   -0.8860 C   0  0  0  0  0  0  0  0  0  0  0  0
   41.1350   14.5600    0.2900 C   0  0  0  0  0  0  0  0  0  0  0  0
   37.1370   15.7300    1.4790 C   0  0  0  0  0  0  0  0  0  0  0  0
   36.2840   16.6100    0.7990 C   0  0  0  0  0  0  0  0  0  0  0  0
   34.6590   18.3070   -0.7690 O   0  5  0  0  0  0  0  0  0  0  0  0
   36.3300   19.4100   -1.5460 O   0  0  0  0  0  0  0  0  0  0  0  0
   41.5880   13.7970    3.6240 O   0  0  0  0  0  0  0  0  0  0  0  0
   45.5860    9.2490    3.1570 O   0  0  0  0  0  0  0  0  0  0  0  0
   46.4760   11.1260    4.6130 O   0  0  0  0  0  0  0  0  0  0  0  0
   44.2500    7.0750    4.7310 Br  0  0  0  0  0  0  0  0  0  0  0  0
   43.4360   14.3580   -3.8130 Br  0  0  0  0  0  0  0  0  0  0  0  0
   45.3390   10.3950    4.0410 S   0  0  0  0  0  0  0  0  0  0  0  0
   38.5830   18.7030   -0.5590 H   0  0  0  0  0  0  0  0  0  0  0  0
   40.1120   17.2400    0.7860 H   0  0  0  0  0  0  0  0  0  0  0  0
   39.6050   15.4130    3.1990 H   0  0  0  0  0  0  0  0  0  0  0  0
   38.8410   14.0580    2.4240 H   0  0  0  0  0  0  0  0  0  0  0  0
   43.3550   11.5180    0.5690 H   0  0  0  0  0  0  0  0  0  0  0  0
   41.6970   11.5570    1.1150 H   0  0  0  0  0  0  0  0  0  0  0  0
   42.3800   11.2990    3.4540 H   0  0  0  0  0  0  0  0  0  0  0  0
   43.1000   10.0480    2.4890 H   0  0  0  0  0  0  0  0  0  0  0  0
   45.6680   13.2120    3.5100 H   0  0  0  0  0  0  0  0  0  0  0  0
   44.0530   13.3310    4.1610 H   0  0  0  0  0  0  0  0  0  0  0  0
   44.2320   14.8520    2.2360 H   0  0  0  0  0  0  0  0  0  0  0  0
   44.9240   13.5920    1.2510 H   0  0  0  0  0  0  0  0  0  0  0  0
   43.9960   12.0460    5.8960 H   0  0  0  0  0  0  0  0  0  0  0  0
   42.2630   11.6860    7.6430 H   0  0  0  0  0  0  0  0  0  0  0  0
   41.4410    9.3890    8.1140 H   0  0  0  0  0  0  0  0  0  0  0  0
   42.3490    7.4780    6.8280 H   0  0  0  0  0  0  0  0  0  0  0  0
   44.1040   13.4870   -1.0290 H   0  0  0  0  0  0  0  0  0  0  0  0
   40.7340   15.3090   -2.9970 H   0  0  0  0  0  0  0  0  0  0  0  0
   39.4720   15.3400   -0.8960 H   0  0  0  0  0  0  0  0  0  0  0  0
   36.7080   14.8820    1.9900 H   0  0  0  0  0  0  0  0  0  0  0  0
   35.2250   16.4300    0.8090 H   0  0  0  0  0  0  0  0  0  0  0  0
  1  8  1  0  0  0  0
  1  9  1  0  0  0  0
  1 26  1  0  0  0  0
  2 12  1  0  0  0  0
  2 13  1  0  0  0  0
  2 36  1  0  0  0  0
  3  4  1  0  0  0  0
  3 29  1  0  0  0  0
  3 30  2  0  0  0  0
  4  5  1  0  0  0  0
  4 28  2  0  0  0  0
  5  6  2  0  0  0  0
  5 37  1  0  0  0  0
  6  7  1  0  0  0  0
  6 38  1  0  0  0  0
  7  8  1  0  0  0  0
  7 27  2  0  0  0  0
  8 39  1  0  0  0  0
  8 40  1  0  0  0  0
  9 10  1  0  0  0  0
  9 31  2  0  0  0  0
 10 11  1  0  0  0  0
 10 14  1  0  0  0  0
 10 21  1  0  0  0  0
 11 12  1  0  0  0  0
 11 41  1  0  0  0  0
 11 42  1  0  0  0  0
 12 43  1  0  0  0  0
 12 44  1  0  0  0  0
 13 14  1  0  0  0  0
 13 45  1  0  0  0  0
 13 46  1  0  0  0  0
 14 47  1  0  0  0  0
 14 48  1  0  0  0  0
 15 16  1  0  0  0  0
 15 20  2  0  0  0  0
 15 36  1  0  0  0  0
 16 17  2  0  0  0  0
 16 49  1  0  0  0  0
 17 18  1  0  0  0  0
 17 50  1  0  0  0  0
 18 19  2  0  0  0  0
 18 51  1  0  0  0  0
 19 20  1  0  0  0  0
 19 52  1  0  0  0  0
 20 34  1  0  0  0  0
 21 22  1  0  0  0  0
 21 26  2  0  0  0  0
 22 23  2  0  0  0  0
 22 53  1  0  0  0  0
 23 24  1  0  0  0  0
 23 35  1  0  0  0  0
 24 25  2  0  0  0  0
 24 54  1  0  0  0  0
 25 26  1  0  0  0  0
 25 55  1  0  0  0  0
 27 28  1  0  0  0  0
 27 56  1  0  0  0  0
 28 57  1  0  0  0  0
 32 36  2  0  0  0  0
 33 36  2  0  0  0  0
M  CHG  1  29  -1
M  END
