../datasets/input/THROMBIN/poses/5B/ligand.pdb
 OpenBabel03111910183D

 42 43  0  0  1  0  0  0  0  0999 V2000
   38.3060   21.3080   40.1230 C   0  0  2  0  0  0  0  0  0  0  0  0
   38.1890   22.5410   39.2750 C   0  0  0  0  0  0  0  0  0  0  0  0
   37.2140   23.0960   39.6570 O   0  0  0  0  0  0  0  0  0  0  0  0
   38.9480   21.4930   41.4800 N   0  0  0  0  0  0  0  0  0  0  0  0
   38.8880   22.9980   38.2500 N   0  0  0  0  0  0  0  0  0  0  0  0
   38.3130   24.0740   37.4160 C   0  0  2  0  0  0  0  0  0  0  0  0
   36.7910   24.0510   37.1660 C   0  0  0  0  0  0  0  0  0  0  0  0
   36.2100   22.9970   36.8840 O   0  0  0  0  0  0  0  0  0  0  0  0
   39.0560   23.9190   36.1040 C   0  0  0  0  0  0  0  0  0  0  0  0
   40.3830   23.2620   36.4530 C   0  0  0  0  0  0  0  0  0  0  0  0
   39.9600   22.3610   37.5510 C   0  0  0  0  0  0  0  0  0  0  0  0
   36.2100   25.2850   37.0340 N   0  0  0  0  0  0  0  0  0  0  0  0
   34.8070   25.5350   36.6650 C   0  0  0  0  0  0  0  0  0  0  0  0
   33.9720   25.5040   37.8820 C   0  0  0  0  0  0  0  0  0  0  0  0
   33.1350   24.4270   38.0860 C   0  0  0  0  0  0  0  0  0  0  0  0
   32.3280   24.3670   39.2150 C   0  0  0  0  0  0  0  0  0  0  0  0
   32.2950   25.4930   40.0540 C   0  0  0  0  0  0  0  0  0  0  0  0
   33.1910   26.5430   39.9320 C   0  0  0  0  0  0  0  0  0  0  0  0
   34.0250   26.5270   38.8570 C   0  0  0  0  0  0  0  0  0  0  0  0
   33.1800   27.9130   41.0460 C   0  0  0  0  0  0  0  0  0  0  0  0
   38.9240   20.1670   39.4220 C   0  0  0  0  0  0  0  0  0  0  0  0
   38.7060   25.0110   37.8190 H   0  0  0  0  0  0  0  0  0  0  0  0
   38.5530   23.2780   35.3780 H   0  0  0  0  0  0  0  0  0  0  0  0
   39.1250   24.8910   35.6120 H   0  0  0  0  0  0  0  0  0  0  0  0
   40.7170   22.7690   35.5380 H   0  0  0  0  0  0  0  0  0  0  0  0
   41.1410   23.9850   36.7600 H   0  0  0  0  0  0  0  0  0  0  0  0
   40.7470   22.2590   38.3010 H   0  0  0  0  0  0  0  0  0  0  0  0
   39.6250   21.3910   37.1730 H   0  0  0  0  0  0  0  0  0  0  0  0
   36.8380   26.0740   37.0190 H   0  0  0  0  0  0  0  0  0  0  0  0
   34.6660   26.5080   36.1870 H   0  0  0  0  0  0  0  0  0  0  0  0
   34.5560   24.8280   35.8700 H   0  0  0  0  0  0  0  0  0  0  0  0
   33.0790   23.6180   37.3620 H   0  0  0  0  0  0  0  0  0  0  0  0
   31.7190   23.4960   39.4420 H   0  0  0  0  0  0  0  0  0  0  0  0
   31.5620   25.5200   40.8560 H   0  0  0  0  0  0  0  0  0  0  0  0
   34.7350   27.3310   38.6830 H   0  0  0  0  0  0  0  0  0  0  0  0
   37.2740   21.0440   40.3610 H   0  0  0  0  0  0  0  0  0  0  0  0
   38.8700   19.3140   40.1010 H   0  0  0  0  0  0  0  0  0  0  0  0
   38.4300   20.0200   38.4590 H   0  0  0  0  0  0  0  0  0  0  0  0
   39.9800   20.3760   39.2420 H   0  0  0  0  0  0  0  0  0  0  0  0
   38.7420   20.6460   42.0350 H   0  0  0  0  0  0  0  0  0  0  0  0
   39.9650   21.6620   41.5470 H   0  0  0  0  0  0  0  0  0  0  0  0
   38.5250   22.3120   41.9440 H   0  0  0  0  0  0  0  0  0  0  0  0
  1  2  1  0  0  0  0
  1 21  1  0  0  0  0
  1 36  1  1  0  0  0
  1  4  1  0  0  0  0
  2  5  1  0  0  0  0
  2  3  2  0  0  0  0
  4 41  1  0  0  0  0
  4 42  1  0  0  0  0
  4 40  1  0  0  0  0
  5  6  1  0  0  0  0
  5 11  1  0  0  0  0
  6  9  1  0  0  0  0
  6  7  1  0  0  0  0
  6 22  1  1  0  0  0
  7  8  2  0  0  0  0
  7 12  1  0  0  0  0
  9 23  1  0  0  0  0
  9 24  1  0  0  0  0
  9 10  1  0  0  0  0
 10 25  1  0  0  0  0
 10 26  1  0  0  0  0
 10 11  1  0  0  0  0
 11 28  1  0  0  0  0
 11 27  1  0  0  0  0
 12 13  1  0  0  0  0
 12 29  1  0  0  0  0
 13 31  1  0  0  0  0
 13 30  1  0  0  0  0
 13 14  1  0  0  0  0
 14 15  2  0  0  0  0
 14 19  1  0  0  0  0
 15 32  1  0  0  0  0
 15 16  1  0  0  0  0
 16 33  1  0  0  0  0
 16 17  2  0  0  0  0
 17 18  1  0  0  0  0
 17 34  1  0  0  0  0
 18 19  2  0  0  0  0
 18 20  1  0  0  0  0
 19 35  1  0  0  0  0
 21 38  1  0  0  0  0
 21 39  1  0  0  0  0
 21 37  1  0  0  0  0
M  END
$$$$
