MK1
  xed2sdf_05210316543D
 
 32 33  0  0  0  0  0  0  0  0999 V2000
   39.2344   17.6631   12.7847 O   0  5  0  0  0  0  0  0  0  0  0  0
   40.3521   17.1022   12.7361 C   0  0  0  0  0  0  0  0  0  0  0  0
   41.1779   17.2188   11.8039 O   0  0  0  0  0  0  0  0  0  0  0  0
   40.7693   16.2193   13.9145 C   0  0  0  0  0  0  0  0  0  0  0  0
   42.0927   15.7292   13.7433 O   0  0  0  0  0  0  0  0  0  0  0  0
   42.5144   14.9212   14.7395 C   0  0  0  0  0  0  0  0  0  0  0  0
   42.1857   13.5746   14.8668 C   0  0  0  0  0  0  0  0  0  0  0  0
   41.2068   12.6502   13.5170 Br  0  0  0  0  0  0  0  0  0  0  0  0
   42.6245   12.9340   16.0147 C   0  0  0  0  0  0  0  0  0  0  0  0
   42.3443   11.5877   16.4784 C   0  0  0  0  0  0  0  0  0  0  0  0
   43.3652   10.7568   16.9469 C   0  0  0  0  0  0  0  0  0  0  0  0
   43.0859    9.4573   17.3660 C   0  0  0  0  0  0  0  0  0  0  0  0
   41.7792    8.9724   17.3119 C   0  0  0  0  0  0  0  0  0  0  0  0
   40.7402    9.7888   16.8449 C   0  0  0  0  0  0  0  0  0  0  0  0
   39.3981    9.3767   16.7741 N   0  0  0  0  0  0  0  0  0  0  0  0
   38.9977    7.9742   16.7120 C   0  0  0  0  0  0  0  0  0  0  0  0
   41.0348   11.0941   16.4477 C   0  0  0  0  0  0  0  0  0  0  0  0
   43.6360   14.0254   16.9149 S   0  0  0  0  0  0  0  0  0  0  0  0
   43.3652   15.3253   15.7665 C   0  0  0  0  0  0  0  0  0  0  0  0
   44.0487   16.6109   16.0384 C   0  0  0  0  0  0  0  0  0  0  0  0
   43.8749   17.5611   15.2448 O   0  5  0  0  0  0  0  0  0  0  0  0
   44.7784   16.7152   17.0498 O   0  0  0  0  0  0  0  0  0  0  0  0
   40.7112   16.7969   14.8381 H   0  0  0  0  0  0  0  0  0  0  0  0
   40.0553   15.3978   13.9949 H   0  0  0  0  0  0  0  0  0  0  0  0
   44.3837   11.1152   16.9828 H   0  0  0  0  0  0  0  0  0  0  0  0
   43.8827    8.8262   17.7310 H   0  0  0  0  0  0  0  0  0  0  0  0
   41.5909    7.9604   17.6367 H   0  0  0  0  0  0  0  0  0  0  0  0
   38.6573   10.0627   16.8096 H   0  0  0  0  0  0  0  0  0  0  0  0
   39.6610    7.3812   17.3429 H   0  0  0  0  0  0  0  0  0  0  0  0
   37.9898    7.8712   17.1160 H   0  0  0  0  0  0  0  0  0  0  0  0
   40.2334   11.7381   16.1154 H   0  0  0  0  0  0  0  0  0  0  0  0
   39.0357    7.5788   15.5797 H   0  0  0  0  0  0  0  0  0  0  0  0
  2  1  1  0
  3  2  2  0
  4  2  1  0
  5  4  1  0
  6  5  1  0
  7  6  1  0
  8  7  1  0
  9  7  2  0
 10  9  1  0
 11 10  2  0
 12 11  1  0
 13 12  2  0
 14 13  1  0
 15 14  1  0
 16 15  1  0
 17 10  1  0
 17 14  2  0
 18  9  1  0
 19  6  2  0
 19 18  1  0
 20 19  1  0
 21 20  1  0
 22 20  2  0
 16 32  1  0
 23  4  1  0
 24  4  1  0
 25 11  1  0
 26 12  1  0
 27 13  1  0
 28 15  1  0
 29 16  1  0
 30 16  1  0
 31 17  1  0
M  CHG  2   1  -1  21  -1
M  END
>  <Favorite_cresset>
false

>  <MW_cresset>
384.2

>  <#Atoms_cresset>
22

>  <SlogP_cresset>
3.5

>  <TPSA_cresset>
101.5

>  <Flexibility_cresset>
3

>  <#RB_cresset>
6

>  <Rof5_cresset>
0

>  <Filename_cresset>
ptp1b_lig7.mol2

>  <_cresset_fieldpoints>
    -5      40.328033      18.387386      10.618790    -12.1731
    -5      39.341831      18.584366      11.109982    -11.8243
    -5      45.013428      18.779041      16.185795    -13.1503
    -5      43.329876      17.616398      13.410449    -13.2907
    -5      42.960712      16.538950      11.959511    -14.0603
    -5      42.357635       9.384830      14.241592     -5.1396
    -5      41.709541      11.132833      19.565231     -4.5430
    -5      39.488224       9.417231      19.234331     -3.9042
    -5      45.472824      15.765543      18.560078     -9.6863
    -6      39.392864      14.218894      15.913334      5.5265
    -6      37.962425      11.800261      16.405903      9.6357
    -6      41.374031       5.937691      18.096222      2.5350
    -7      38.865852      10.072515      14.084253     -2.3644
    -7      42.175827      15.029148      11.133684     -2.2553
    -7      39.602028      18.772038      10.448767     -0.8217
    -7      39.462585      14.222269      16.439575     -2.9376
    -7      41.916016      12.630637      19.518417     -2.1794
    -7      46.680962      15.090958      16.503708     -1.5520
    -7      38.985855       9.624496      19.572411     -1.7001
    -7      42.538193       9.431479      13.829699     -2.6118
    -7      45.359844      12.337021      14.457543     -2.4198
    -7      43.440056      17.899967      12.926159     -2.2199
    -7      42.963566      16.542477      18.892628     -1.5485
    -8      41.820908      12.763363      14.782324      5.5403
    -8      41.841179      12.308802      15.637988      5.4999
    -8      42.083870      10.293028      16.893810      6.9360
    -8      42.941284      14.105577      15.810136      7.0476
    -8      40.137604      16.352633      13.991778      2.5191
    -8      38.834236       7.171572      16.652596      2.5445

$$$$
