../datasets/input/FXR_2/poses/FXR73/ligand.pdb
 OpenBabel03111910173D

 53 57  0  0  0  0  0  0  0  0999 V2000
   40.4430   14.6350    1.4680 N   0  0  0  0  0  0  0  0  0  0  0  0
   44.3540   11.7990    2.8550 N   0  0  0  0  0  0  0  0  0  0  0  0
   36.0910   17.4440    0.1560 C   0  0  0  0  0  0  0  0  0  0  0  0
   37.4460   17.8000    0.0080 C   0  0  0  0  0  0  0  0  0  0  0  0
   38.4510   17.0370    0.6430 C   0  0  0  0  0  0  0  0  0  0  0  0
   38.1200   15.8620    1.3510 C   0  0  0  0  0  0  0  0  0  0  0  0
   39.1500   15.0010    2.0760 C   0  0  0  0  0  0  0  0  0  0  0  0
   41.3920   14.0320    2.2100 C   0  0  0  0  0  0  0  0  0  0  0  0
   42.6190   13.6420    1.3580 C   0  0  0  0  0  0  0  0  0  0  0  0
   42.6650   12.1270    1.0940 C   0  0  0  0  0  0  0  0  0  0  0  0
   43.0810   11.3160    2.3160 C   0  0  0  0  0  0  0  0  0  0  0  0
   44.4130   13.2420    3.1660 C   0  0  0  0  0  0  0  0  0  0  0  0
   43.9710   14.0970    1.9540 C   0  0  0  0  0  0  0  0  0  0  0  0
   42.2310   14.3360    0.0770 C   0  0  0  0  0  0  0  0  0  0  0  0
   42.9920   14.4270   -1.1020 C   0  0  0  0  0  0  0  0  0  0  0  0
   42.3730   14.9380   -2.2570 C   0  0  0  0  0  0  0  0  0  0  0  0
   41.0110   15.3050   -2.2250 C   0  0  0  0  0  0  0  0  0  0  0  0
   40.2610   15.2100   -1.0340 C   0  0  0  0  0  0  0  0  0  0  0  0
   40.9110   14.7760    0.1370 C   0  0  0  0  0  0  0  0  0  0  0  0
   36.7660   15.5050    1.4770 C   0  0  0  0  0  0  0  0  0  0  0  0
   35.7620   16.3030    0.9100 C   0  0  0  0  0  0  0  0  0  0  0  0
   41.3340   13.8460    3.4280 O   0  0  0  0  0  0  0  0  0  0  0  0
   45.4480    9.4600    3.0140 O   0  0  0  0  0  0  0  0  0  0  0  0
   46.3840   11.3800    4.4040 O   0  0  0  0  0  0  0  0  0  0  0  0
   43.3670   15.1180   -3.8660 Br  0  0  0  0  0  0  0  0  0  0  0  0
   45.2390   10.6670    3.8210 S   0  0  0  0  0  0  0  0  0  0  0  0
   44.1050   10.2400    5.1340 C   0  0  0  0  0  0  0  0  0  0  0  0
   43.7130    8.5810    5.4880 S   0  0  0  0  0  0  0  0  0  0  0  0
   42.6050    9.0650    6.7500 C   0  0  0  0  0  0  0  0  0  0  0  0
   42.5260   10.4300    6.8460 C   0  0  0  0  0  0  0  0  0  0  0  0
   43.3830   11.1000    5.9190 C   0  0  0  0  0  0  0  0  0  0  0  0
   35.0950   18.1780   -0.4330 O   0  0  0  0  0  0  0  0  0  0  0  0
   37.7150   18.6660   -0.5790 H   0  0  0  0  0  0  0  0  0  0  0  0
   39.4900   17.3110    0.5470 H   0  0  0  0  0  0  0  0  0  0  0  0
   39.3530   15.5100    3.0210 H   0  0  0  0  0  0  0  0  0  0  0  0
   38.6720   14.0620    2.3570 H   0  0  0  0  0  0  0  0  0  0  0  0
   43.3490   11.9080    0.2740 H   0  0  0  0  0  0  0  0  0  0  0  0
   41.6850   11.7820    0.7680 H   0  0  0  0  0  0  0  0  0  0  0  0
   42.3180   11.3500    3.0940 H   0  0  0  0  0  0  0  0  0  0  0  0
   43.1860   10.2710    2.0340 H   0  0  0  0  0  0  0  0  0  0  0  0
   45.4310   13.5160    3.4450 H   0  0  0  0  0  0  0  0  0  0  0  0
   43.7940   13.4520    4.0360 H   0  0  0  0  0  0  0  0  0  0  0  0
   43.9240   15.1480    2.2420 H   0  0  0  0  0  0  0  0  0  0  0  0
   44.7440   14.0280    1.1880 H   0  0  0  0  0  0  0  0  0  0  0  0
   44.0180   14.0950   -1.1290 H   0  0  0  0  0  0  0  0  0  0  0  0
   40.5370   15.6660   -3.1180 H   0  0  0  0  0  0  0  0  0  0  0  0
   39.2120   15.4420   -1.0570 H   0  0  0  0  0  0  0  0  0  0  0  0
   36.4870   14.6140    2.0160 H   0  0  0  0  0  0  0  0  0  0  0  0
   34.7400   15.9890    1.0320 H   0  0  0  0  0  0  0  0  0  0  0  0
   42.1000    8.3120    7.3370 H   0  0  0  0  0  0  0  0  0  0  0  0
   41.9040   10.9650    7.5450 H   0  0  0  0  0  0  0  0  0  0  0  0
   43.4550   12.1770    5.8650 H   0  0  0  0  0  0  0  0  0  0  0  0
   34.2710   18.0440    0.0260 H   0  0  0  0  0  0  0  0  0  0  0  0
  1  7  1  0  0  0  0
  1  8  1  0  0  0  0
  1 19  1  0  0  0  0
  2 11  1  0  0  0  0
  2 12  1  0  0  0  0
  2 26  1  0  0  0  0
  3  4  1  0  0  0  0
  3 21  2  0  0  0  0
  3 32  1  0  0  0  0
  4  5  2  0  0  0  0
  4 33  1  0  0  0  0
  5  6  1  0  0  0  0
  5 34  1  0  0  0  0
  6  7  1  0  0  0  0
  6 20  2  0  0  0  0
  7 35  1  0  0  0  0
  7 36  1  0  0  0  0
  8  9  1  0  0  0  0
  8 22  2  0  0  0  0
  9 10  1  0  0  0  0
  9 13  1  0  0  0  0
  9 14  1  0  0  0  0
 10 11  1  0  0  0  0
 10 37  1  0  0  0  0
 10 38  1  0  0  0  0
 11 39  1  0  0  0  0
 11 40  1  0  0  0  0
 12 13  1  0  0  0  0
 12 41  1  0  0  0  0
 12 42  1  0  0  0  0
 13 43  1  0  0  0  0
 13 44  1  0  0  0  0
 14 15  1  0  0  0  0
 14 19  2  0  0  0  0
 15 16  2  0  0  0  0
 15 45  1  0  0  0  0
 16 17  1  0  0  0  0
 16 25  1  0  0  0  0
 17 18  2  0  0  0  0
 17 46  1  0  0  0  0
 18 19  1  0  0  0  0
 18 47  1  0  0  0  0
 20 21  1  0  0  0  0
 20 48  1  0  0  0  0
 21 49  1  0  0  0  0
 23 26  2  0  0  0  0
 24 26  2  0  0  0  0
 26 27  1  0  0  0  0
 27 28  1  0  0  0  0
 27 31  2  0  0  0  0
 28 29  1  0  0  0  0
 29 30  2  0  0  0  0
 29 50  1  0  0  0  0
 30 31  1  0  0  0  0
 30 51  1  0  0  0  0
 31 52  1  0  0  0  0
 32 53  1  0  0  0  0
M  END
$$$$
