../datasets/input/SCHR_THROMBIN/poses/throm_lig5/ligand.pdb
 OpenBabel02211915413D

 52 54  0  0  1  0  0  0  0  0999 V2000
   18.3830  -13.2490   21.6780 N   0  0  0  0  0  0  0  0  0  0  0  0
   18.2280  -11.9600   20.9750 C   0  0  2  0  0  0  0  0  0  0  0  0
   17.4780  -13.7660   22.5480 C   0  0  0  0  0  0  0  0  0  0  0  0
   16.4770  -13.1400   22.8990 O   0  0  0  0  0  0  0  0  0  0  0  0
   16.8530  -11.7830   20.2960 C   0  0  0  0  0  0  0  0  0  0  0  0
   16.4280  -12.6520   19.5330 O   0  0  0  0  0  0  0  0  0  0  0  0
   19.3560  -11.9390   19.9320 C   0  0  0  0  0  0  0  0  0  0  0  0
   17.6880  -15.1680   23.1540 C   0  0  2  0  0  0  0  0  0  0  0  0
   16.1690  -10.6730   20.5900 N   0  0  0  0  0  0  0  0  0  0  0  0
   20.4240  -12.8650   20.4720 C   0  0  0  0  0  0  0  0  0  0  0  0
   16.4280  -15.9250   23.0590 N   0  3  0  0  0  0  0  0  0  0  0  0
   18.1460  -15.1030   24.6300 C   0  0  0  0  0  0  0  0  0  0  0  0
   14.8260  -10.3440   20.1330 C   0  0  0  0  0  0  0  0  0  0  0  0
   19.6650  -13.8710   21.3290 C   0  0  0  0  0  0  0  0  0  0  0  0
   19.5690  -14.6120   24.8280 C   0  0  0  0  0  0  0  0  0  0  0  0
   13.7220  -10.7960   21.0760 C   0  0  0  0  0  0  0  0  0  0  0  0
   19.8070  -13.3110   25.3060 C   0  0  0  0  0  0  0  0  0  0  0  0
   12.8500   -9.8480   21.6540 C   0  0  0  0  0  0  0  0  0  0  0  0
   21.1150  -12.8160   25.4200 C   0  0  0  0  0  0  0  0  0  0  0  0
   11.8080  -10.2640   22.5060 C   0  0  0  0  0  0  0  0  0  0  0  0
   22.2040  -13.6340   25.0730 C   0  0  0  0  0  0  0  0  0  0  0  0
   11.6260  -11.6330   22.7780 C   0  0  0  0  0  0  0  0  0  0  0  0
   21.9800  -14.9540   24.6380 C   0  0  0  0  0  0  0  0  0  0  0  0
   12.4940  -12.5820   22.2070 C   0  0  0  0  0  0  0  0  0  0  0  0
   20.6650  -15.4440   24.5160 C   0  0  0  0  0  0  0  0  0  0  0  0
   13.5400  -12.1660   21.3620 C   0  0  0  0  0  0  0  0  0  0  0  0
   18.3840  -11.1630   21.7030 H   0  0  0  0  0  0  0  0  0  0  0  0
   19.0120  -12.3170   18.9680 H   0  0  0  0  0  0  0  0  0  0  0  0
   19.7450  -10.9390   19.7690 H   0  0  0  0  0  0  0  0  0  0  0  0
   18.4140  -15.7410   22.5790 H   0  0  0  0  0  0  0  0  0  0  0  0
   16.6310   -9.9770   21.1730 H   0  0  0  0  0  0  0  0  0  0  0  0
   21.0080  -13.3390   19.6830 H   0  0  0  0  0  0  0  0  0  0  0  0
   21.1150  -12.3010   21.1010 H   0  0  0  0  0  0  0  0  0  0  0  0
   16.5430  -16.8440   23.4590 H   0  0  0  0  0  0  0  0  0  0  0  0
   15.7070  -15.4190   23.5590 H   0  0  0  0  0  0  0  0  0  0  0  0
   16.1570  -16.0040   22.0900 H   0  0  0  0  0  0  0  0  0  0  0  0
   17.4600  -14.4790   25.2070 H   0  0  0  0  0  0  0  0  0  0  0  0
   18.0820  -16.0950   25.0780 H   0  0  0  0  0  0  0  0  0  0  0  0
   14.7760   -9.2610   20.0240 H   0  0  0  0  0  0  0  0  0  0  0  0
   14.6390  -10.7680   19.1450 H   0  0  0  0  0  0  0  0  0  0  0  0
   20.2540  -14.1340   22.2050 H   0  0  0  0  0  0  0  0  0  0  0  0
   19.4830  -14.7800   20.7540 H   0  0  0  0  0  0  0  0  0  0  0  0
   18.9900  -12.6830   25.6030 H   0  0  0  0  0  0  0  0  0  0  0  0
   12.9730   -8.7970   21.4420 H   0  0  0  0  0  0  0  0  0  0  0  0
   21.2680  -11.8120   25.7860 H   0  0  0  0  0  0  0  0  0  0  0  0
   11.1430   -9.5390   22.9500 H   0  0  0  0  0  0  0  0  0  0  0  0
   23.2120  -13.2580   25.1590 H   0  0  0  0  0  0  0  0  0  0  0  0
   22.8200  -15.5890   24.3940 H   0  0  0  0  0  0  0  0  0  0  0  0
   12.3610  -13.6330   22.4240 H   0  0  0  0  0  0  0  0  0  0  0  0
   20.5040  -16.4530   24.1620 H   0  0  0  0  0  0  0  0  0  0  0  0
   14.2010  -12.9040   20.9320 H   0  0  0  0  0  0  0  0  0  0  0  0
   10.8210  -11.9580   23.4230 H   0  0  0  0  0  0  0  0  0  0  0  0
  1  2  1  0  0  0  0
  1  3  1  0  0  0  0
  1 14  1  0  0  0  0
  2  5  1  0  0  0  0
  2  7  1  0  0  0  0
  2 27  1  1  0  0  0
  3  4  2  0  0  0  0
  3  8  1  0  0  0  0
  5  6  2  0  0  0  0
  5  9  1  0  0  0  0
  7 10  1  0  0  0  0
  7 28  1  0  0  0  0
  7 29  1  0  0  0  0
  8 11  1  0  0  0  0
  8 12  1  0  0  0  0
  8 30  1  6  0  0  0
  9 13  1  0  0  0  0
  9 31  1  0  0  0  0
 10 14  1  0  0  0  0
 10 32  1  0  0  0  0
 10 33  1  0  0  0  0
 11 34  1  0  0  0  0
 11 35  1  0  0  0  0
 11 36  1  0  0  0  0
 12 15  1  0  0  0  0
 12 37  1  0  0  0  0
 12 38  1  0  0  0  0
 13 16  1  0  0  0  0
 13 39  1  0  0  0  0
 13 40  1  0  0  0  0
 14 41  1  0  0  0  0
 14 42  1  0  0  0  0
 15 17  2  0  0  0  0
 15 25  1  0  0  0  0
 16 18  2  0  0  0  0
 16 26  1  0  0  0  0
 17 19  1  0  0  0  0
 17 43  1  0  0  0  0
 18 20  1  0  0  0  0
 18 44  1  0  0  0  0
 19 21  2  0  0  0  0
 19 45  1  0  0  0  0
 20 22  2  0  0  0  0
 20 46  1  0  0  0  0
 21 23  1  0  0  0  0
 21 47  1  0  0  0  0
 22 24  1  0  0  0  0
 22 52  1  0  0  0  0
 23 25  2  0  0  0  0
 23 48  1  0  0  0  0
 24 26  2  0  0  0  0
 24 49  1  0  0  0  0
 25 50  1  0  0  0  0
 26 51  1  0  0  0  0
M  CHG  1  11   1
M  END
