# Molecule written by the XED library from Cresset
@<TRIPOS>MOLECULE
MK3
    44     46      1
SMALL
USER_CHARGES
@<TRIPOS>ATOM
      1  N          37.7153    5.8365   13.4583 N.3       1 LIG1       -0.4329
      2  C          37.0173    6.1412   14.7977 C.3       1 LIG1       -0.0500
      3  C          37.3829    7.5403   15.3341 C.3       1 LIG1       -0.0609
      4  C          38.9114    7.7620   15.4291 C.3       1 LIG1       -0.0202
      5  N          39.1835    9.1385   15.8446 N.pl3     1 LIG1       -0.3075
      6  C          40.4829    9.5698   16.1594 C.ar      1 LIG1        0.0360
      7  C          41.4815    8.7320   16.6725 C.ar      1 LIG1       -0.1146
      8  C          42.7507    9.2416   16.9423 C.ar      1 LIG1       -0.0870
      9  C          43.0417   10.5800   16.6715 C.ar      1 LIG1       -0.1115
     10  C          42.0576   11.4350   16.1601 C.ar      1 LIG1       -0.0084
     11  C          42.3474   12.8247   15.8293 C.ar      1 LIG1        0.0705
     12  S          43.4367   13.7822   16.8006 S.3       1 LIG1       -0.0976
     13  C          43.2081   15.1991   15.7938 C.ar      1 LIG1        0.0496
     14  C          43.9665   16.4136   16.1781 C.2       1 LIG1        0.2791
     15  O          44.7099   16.3644   17.1824 O.co2     1 LIG1       -0.2548
     16  O          43.8414   17.4562   15.4971 O.2       1 LIG1       -0.2548
     17  C          42.3248   14.9326   14.7527 C.ar      1 LIG1        0.1207
     18  O          41.9730   15.8281   13.8004 O.3       1 LIG1       -0.1783
     19  C          40.8052   16.5938   14.0882 C.3       1 LIG1        0.0711
     20  C          40.2682   17.2823   12.8312 C.2       1 LIG1        0.2632
     21  O          40.8644   17.0552   11.7553 O.co2     1 LIG1       -0.2388
     22  O          39.2663   18.0188   12.9662 O.2       1 LIG1       -0.2388
     23  C          41.8775   13.6145   14.7795 C.ar      1 LIG1        0.0742
     24  BR         40.7166   12.9520   13.4197 Br        1 LIG1       -0.0777
     25  C          40.7763   10.9164   15.9496 C.ar      1 LIG1       -0.1067
     26  C          39.6100    7.4194   14.0884 C.3       1 LIG1       -0.0609
     27  C          39.2402    6.0199   13.5606 C.3       1 LIG1       -0.0500
     28  H          35.9326    6.0667   14.7205 H         1 LIG1        0.0566
     29  H          37.3195    5.3852   15.5226 H         1 LIG1        0.0566
     30  H          36.9559    8.3024   14.6823 H         1 LIG1        0.0485
     31  H          36.9345    7.6919   16.3159 H         1 LIG1        0.0485
     32  H          39.3608    7.6368   14.4440 H         1 LIG1        0.0594
     33  H          38.3889    9.7609   15.8895 H         1 LIG1        0.2758
     34  H          41.3036    7.6886   16.8709 H         1 LIG1        0.0917
     35  H          43.5109    8.5988   17.3609 H         1 LIG1        0.0906
     36  H          44.0391   10.9524   16.8549 H         1 LIG1        0.0910
     37  H          40.0209   15.9856   14.5418 H         1 LIG1        0.0707
     38  H          41.0678   17.3551   14.8233 H         1 LIG1        0.0707
     39  H          39.9928   11.5836   15.6204 H         1 LIG1        0.0921
     40  H          39.3375    8.1595   13.3359 H         1 LIG1        0.0485
     41  H          40.6918    7.4850   14.2037 H         1 LIG1        0.0485
     42  H          39.7044    5.2681   14.1987 H         1 LIG1        0.0566
     43  H          39.6700    5.8781   12.5690 H         1 LIG1        0.0566
     44  H          37.4536    4.9198   13.0761 H         1 LIG1        0.2748
@<TRIPOS>BOND
     1      2      1 1 
     2      3      2 1 
     3      4      3 1 
     4      5      4 1 
     5      6      5 1 
     6      7      6 ar
     7      8      7 ar
     8      9      8 ar
     9     10      9 ar
    10     11     10 1 
    11     12     11 ar
    12     13     12 ar
    13     14     13 1 
    14     15     14 1 
    15     16     14 2 
    16     17     13 ar
    17     18     17 1 
    18     19     18 1 
    19     20     19 1 
    20     21     20 1 
    21     22     20 2 
    22     23     11 ar
    23     23     17 ar
    24     24     23 1 
    25     25      6 ar
    26     25     10 ar
    27     26      4 1 
    28     27      1 1 
    29     27     26 1 
    30      1     44 1 
    31     28      2 1 
    32     29      2 1 
    33     30      3 1 
    34     31      3 1 
    35     32      4 1 
    36     33      5 1 
    37     34      7 1 
    38     35      8 1 
    39     36      9 1 
    40     37     19 1 
    41     38     19 1 
    42     39     25 1 
    43     40     26 1 
    44     41     26 1 
    45     42     27 1 
    46     43     27 1 
@<TRIPOS>SUBSTRUCTURE
     1 LIG1         1 MOLECULE          1 A
