../datasets/input/THROMBIN/poses/5H/ligand.pdb
 OpenBabel03111910183D

 52 54  0  0  1  0  0  0  0  0999 V2000
   39.2380   21.0310   39.6720 C   0  0  1  0  0  0  0  0  0  0  0  0
   38.6220   22.3360   39.0880 C   0  0  0  0  0  0  0  0  0  0  0  0
   37.6100   22.7790   39.6550 O   0  0  0  0  0  0  0  0  0  0  0  0
   39.1200   22.9130   37.9540 N   0  0  0  0  0  0  0  0  0  0  0  0
   38.5430   24.2260   37.5680 C   0  0  2  0  0  0  0  0  0  0  0  0
   37.0840   24.2410   37.1460 C   0  0  0  0  0  0  0  0  0  0  0  0
   36.4580   23.2720   36.6980 O   0  0  0  0  0  0  0  0  0  0  0  0
   39.4040   24.6460   36.3690 C   0  0  0  0  0  0  0  0  0  0  0  0
   40.6620   23.8310   36.3380 C   0  0  0  0  0  0  0  0  0  0  0  0
   40.3030   22.5370   37.1270 C   0  0  0  0  0  0  0  0  0  0  0  0
   36.4080   25.4320   37.3880 N   0  0  0  0  0  0  0  0  0  0  0  0
   35.0240   25.6560   37.0640 C   0  0  0  0  0  0  0  0  0  0  0  0
   34.1280   25.5240   38.2610 C   0  0  0  0  0  0  0  0  0  0  0  0
   33.1830   24.4940   38.3800 C   0  0  0  0  0  0  0  0  0  0  0  0
   32.3670   24.4320   39.5340 C   0  0  0  0  0  0  0  0  0  0  0  0
   32.3670   25.5220   40.3890 C   0  0  0  0  0  0  0  0  0  0  0  0
   33.2690   26.5380   40.2740 C   0  0  0  0  0  0  0  0  0  0  0  0
   34.2090   26.5400   39.2850 C   0  0  0  0  0  0  0  0  0  0  0  0
   33.2930   27.8990   41.3190 C   0  0  0  0  0  0  0  0  0  0  0  0
   40.5510   21.3540   40.5400 C   0  0  0  0  0  0  0  0  0  0  0  0
   40.9600   20.1780   41.4830 C   0  0  0  0  0  0  0  0  0  0  0  0
   41.9530   20.7690   42.4460 C   0  0  0  0  0  0  0  0  0  0  0  0
   41.5320   22.2150   42.5880 C   0  0  0  0  0  0  0  0  0  0  0  0
   40.4730   22.4900   41.5370 C   0  0  0  0  0  0  0  0  0  0  0  0
   38.0850   20.1930   40.2850 N   0  0  0  0  0  0  0  0  0  0  0  0
   38.7520   24.9330   38.3750 H   0  0  0  0  0  0  0  0  0  0  0  0
   38.9270   24.5100   35.3960 H   0  0  0  0  0  0  0  0  0  0  0  0
   39.7570   25.6210   36.7120 H   0  0  0  0  0  0  0  0  0  0  0  0
   41.0510   23.5650   35.3530 H   0  0  0  0  0  0  0  0  0  0  0  0
   41.4420   24.3550   36.8940 H   0  0  0  0  0  0  0  0  0  0  0  0
   41.1470   22.2800   37.7730 H   0  0  0  0  0  0  0  0  0  0  0  0
   40.0700   21.7300   36.4280 H   0  0  0  0  0  0  0  0  0  0  0  0
   36.9060   26.1550   37.8870 H   0  0  0  0  0  0  0  0  0  0  0  0
   35.0140   26.7000   36.7410 H   0  0  0  0  0  0  0  0  0  0  0  0
   34.7200   24.9820   36.2590 H   0  0  0  0  0  0  0  0  0  0  0  0
   33.0810   23.7470   37.5970 H   0  0  0  0  0  0  0  0  0  0  0  0
   31.6500   23.6170   39.5950 H   0  0  0  0  0  0  0  0  0  0  0  0
   31.6060   25.5450   41.1650 H   0  0  0  0  0  0  0  0  0  0  0  0
   34.9870   27.2900   39.1670 H   0  0  0  0  0  0  0  0  0  0  0  0
   41.3710   21.6820   39.8990 H   0  0  0  0  0  0  0  0  0  0  0  0
   41.3280   19.4010   40.8100 H   0  0  0  0  0  0  0  0  0  0  0  0
   40.0870   19.8600   42.0570 H   0  0  0  0  0  0  0  0  0  0  0  0
   41.9720   20.3180   43.4400 H   0  0  0  0  0  0  0  0  0  0  0  0
   42.9350   20.6100   41.9970 H   0  0  0  0  0  0  0  0  0  0  0  0
   41.0540   22.3340   43.5620 H   0  0  0  0  0  0  0  0  0  0  0  0
   42.4150   22.8510   42.4980 H   0  0  0  0  0  0  0  0  0  0  0  0
   40.6220   23.4560   41.0500 H   0  0  0  0  0  0  0  0  0  0  0  0
   39.5170   22.4380   42.0620 H   0  0  0  0  0  0  0  0  0  0  0  0
   39.5330   20.4120   38.8230 H   0  0  0  0  0  0  0  0  0  0  0  0
   37.4020   19.7730   39.6340 H   0  0  0  0  0  0  0  0  0  0  0  0
   37.5520   20.7700   40.9570 H   0  0  0  0  0  0  0  0  0  0  0  0
   38.2880   19.3070   40.7750 H   0  0  0  0  0  0  0  0  0  0  0  0
  1 49  1  6  0  0  0
  1  2  1  0  0  0  0
  1 25  1  0  0  0  0
  1 20  1  0  0  0  0
  2  4  1  0  0  0  0
  2  3  2  0  0  0  0
  4 10  1  0  0  0  0
  4  5  1  0  0  0  0
  5  8  1  0  0  0  0
  5  6  1  0  0  0  0
  5 26  1  1  0  0  0
  6  7  2  0  0  0  0
  6 11  1  0  0  0  0
  8 27  1  0  0  0  0
  8  9  1  0  0  0  0
  8 28  1  0  0  0  0
  9 29  1  0  0  0  0
  9 30  1  0  0  0  0
  9 10  1  0  0  0  0
 10 32  1  0  0  0  0
 10 31  1  0  0  0  0
 11 12  1  0  0  0  0
 11 33  1  0  0  0  0
 12 35  1  0  0  0  0
 12 34  1  0  0  0  0
 12 13  1  0  0  0  0
 13 14  2  0  0  0  0
 13 18  1  0  0  0  0
 14 36  1  0  0  0  0
 14 15  1  0  0  0  0
 15 37  1  0  0  0  0
 15 16  2  0  0  0  0
 16 17  1  0  0  0  0
 16 38  1  0  0  0  0
 17 18  2  0  0  0  0
 17 19  1  0  0  0  0
 18 39  1  0  0  0  0
 20 40  1  0  0  0  0
 20 21  1  0  0  0  0
 20 24  1  0  0  0  0
 21 41  1  0  0  0  0
 21 42  1  0  0  0  0
 21 22  1  0  0  0  0
 22 44  1  0  0  0  0
 22 23  1  0  0  0  0
 22 43  1  0  0  0  0
 23 24  1  0  0  0  0
 23 46  1  0  0  0  0
 23 45  1  0  0  0  0
 24 47  1  0  0  0  0
 24 48  1  0  0  0  0
 25 50  1  0  0  0  0
 25 52  1  0  0  0  0
 25 51  1  0  0  0  0
M  END
$$$$
