../datasets/input/HSP90_3/poses/HSP90_15/ligand.pdb
 OpenBabel03111910153D

 36 39  0  0  0  0  0  0  0  0999 V2000
    3.0530   15.9640   25.6570 C   0  0  0  0  0  0  0  0  0  0  0  0
    4.1310   14.8890   25.4500 C   0  0  0  0  0  0  0  0  0  0  0  0
    4.7930   14.4850   26.7760 C   0  0  0  0  0  0  0  0  0  0  0  0
    3.5820   13.6790   24.7040 C   0  0  0  0  0  0  0  0  0  0  0  0
    4.3860   12.9750   23.7830 C   0  0  0  0  0  0  0  0  0  0  0  0
    3.8680   11.8610   23.0990 C   0  0  0  0  0  0  0  0  0  0  0  0
    2.5440   11.4400   23.3310 C   0  0  0  0  0  0  0  0  0  0  0  0
    2.0600   10.3620   22.6440 O   0  0  0  0  0  0  0  0  0  0  0  0
    1.7260   12.1310   24.2560 C   0  0  0  0  0  0  0  0  0  0  0  0
    2.2570   13.2510   24.9310 C   0  0  0  0  0  0  0  0  0  0  0  0
    0.3380   11.7140   24.5210 C   0  0  0  0  0  0  0  0  0  0  0  0
    0.0660   10.8590   25.6090 C   0  0  0  0  0  0  0  0  0  0  0  0
   -1.2500   10.4390   25.9060 C   0  0  0  0  0  0  0  0  0  0  0  0
   -1.4780    9.5880   27.0270 N   0  0  0  0  0  0  0  0  0  0  0  0
   -2.4190    9.7230   27.9940 C   0  0  0  0  0  0  0  0  0  0  0  0
   -3.1280   10.7060   28.2000 O   0  0  0  0  0  0  0  0  0  0  0  0
   -2.4330    8.5840   28.7120 N   0  0  0  0  0  0  0  0  0  0  0  0
   -1.5020    7.6830   28.1930 C   0  0  0  0  0  0  0  0  0  0  0  0
   -1.1630    6.3840   28.5990 C   0  0  0  0  0  0  0  0  0  0  0  0
   -0.1540    5.7120   27.8610 C   0  0  0  0  0  0  0  0  0  0  0  0
    0.4800    6.3620   26.7660 C   0  0  0  0  0  0  0  0  0  0  0  0
    0.1180    7.6750   26.3810 C   0  0  0  0  0  0  0  0  0  0  0  0
   -0.8960    8.3080   27.1220 C   0  0  0  0  0  0  0  0  0  0  0  0
    0.2700    4.3040   28.2490 C   0  0  0  0  0  0  0  0  0  0  0  0
   -0.8120    3.5360   28.3670 F   0  0  0  0  0  0  0  0  0  0  0  0
    1.0760    3.7700   27.3300 F   0  0  0  0  0  0  0  0  0  0  0  0
    0.9180    4.3170   29.4150 F   0  0  0  0  0  0  0  0  0  0  0  0
   -2.3150   10.8800   25.0830 C   0  0  0  0  0  0  0  0  0  0  0  0
   -3.6090   10.5160   25.3260 O   0  0  0  0  0  0  0  0  0  0  0  0
   -2.0520   11.7300   23.9920 C   0  0  0  0  0  0  0  0  0  0  0  0
   -0.7370   12.1460   23.7090 C   0  0  0  0  0  0  0  0  0  0  0  0
   -0.5140   12.9640   22.6370 O   0  0  0  0  0  0  0  0  0  0  0  0
    1.3360    9.9380   23.0780 H   0  0  0  0  0  0  0  0  0  0  0  0
   -3.0260    8.3840   29.5040 H   0  0  0  0  0  0  0  0  0  0  0  0
   -4.2270   10.9680   24.7720 H   0  0  0  0  0  0  0  0  0  0  0  0
   -1.2930   13.1330   22.1290 H   0  0  0  0  0  0  0  0  0  0  0  0
  2  1  1  0  0  0  0
  2  3  1  0  0  0  0
  4 10  1  0  0  0  0
  4  2  1  0  0  0  0
  5  4  2  0  0  0  0
  6  7  2  0  0  0  0
  6  5  1  0  0  0  0
  7  9  1  0  0  0  0
  8 33  1  0  0  0  0
  8  7  1  0  0  0  0
  9 11  1  0  0  0  0
  9 10  2  0  0  0  0
 11 12  2  0  0  0  0
 12 13  1  0  0  0  0
 13 14  1  0  0  0  0
 14 23  1  0  0  0  0
 14 15  1  0  0  0  0
 15 16  2  0  0  0  0
 15 17  1  0  0  0  0
 17 34  1  0  0  0  0
 18 19  1  0  0  0  0
 18 17  1  0  0  0  0
 20 24  1  0  0  0  0
 20 19  2  0  0  0  0
 21 20  1  0  0  0  0
 22 21  2  0  0  0  0
 22 23  1  0  0  0  0
 23 18  2  0  0  0  0
 24 25  1  0  0  0  0
 24 27  1  0  0  0  0
 26 24  1  0  0  0  0
 28 29  1  0  0  0  0
 28 13  2  0  0  0  0
 30 28  1  0  0  0  0
 31 30  2  0  0  0  0
 31 11  1  0  0  0  0
 32 31  1  0  0  0  0
 35 29  1  0  0  0  0
 36 32  1  0  0  0  0
M  END
$$$$
