../datasets/input/HSP90_2/poses/HSP90_100/ligand.pdb
 OpenBabel02211915413D

 22 24  0  0  1  0  0  0  0  0999 V2000
    1.9790    9.6660   24.3370 C   0  0  0  0  0  0  0  0  0  0  0  0
    1.1570   10.8110   24.4210 C   0  0  0  0  0  0  0  0  0  0  0  0
    3.3500    9.7850   24.0380 C   0  0  0  0  0  0  0  0  0  0  0  0
    3.1040   12.2030   23.8980 C   0  0  0  0  0  0  0  0  0  0  0  0
    3.9140   11.0560   23.8170 C   0  0  0  0  0  0  0  0  0  0  0  0
    1.7320   12.0840   24.1970 C   0  0  0  0  0  0  0  0  0  0  0  0
    5.5920   11.2050   23.4500 C   0  0  0  0  0  0  0  0  0  0  0  0
    0.7670   13.5160   24.2850 C   0  0  0  0  0  0  0  0  0  0  0  0
   -0.2790   10.6600   24.7360 C   0  0  2  0  0  0  0  0  0  0  0  0
   -1.0180   11.6680   22.6000 C   0  0  0  0  0  0  0  0  0  0  0  0
   -1.3090   11.0550   23.8940 C   0  0  0  0  0  0  0  0  0  0  0  0
   -2.6530   10.8480   24.3380 C   0  0  0  0  0  0  0  0  0  0  0  0
   -3.5810   11.7990   22.7580 H   0  0  0  0  0  0  0  0  0  0  0  0
   -4.6470   11.2110   23.9850 H   0  0  0  0  0  0  0  0  0  0  0  0
    0.1840    9.6370   26.9170 N   0  0  0  0  0  0  0  0  0  0  0  0
   -0.7880   12.1530   21.5750 N   0  0  0  0  0  0  0  0  0  0  0  0
   -2.9800   10.3030   25.5040 N   0  0  0  0  0  0  0  0  0  0  0  0
   -0.6340   10.1000   25.9320 N   0  0  0  0  0  0  0  0  0  0  0  0
   -2.0040    9.3620   27.5130 N   0  0  0  0  0  0  0  0  0  0  0  0
   -0.6860    9.2150   27.8250 C   0  0  0  0  0  0  0  0  0  0  0  0
   -1.9740    9.9250   26.3090 C   0  0  0  0  0  0  0  0  0  0  0  0
   -3.7280   11.2110   23.5660 N   0  0  0  0  0  0  0  0  0  0  0  0
  1  3  2  0  0  0  0
  1  2  1  0  0  0  0
  2  6  2  0  0  0  0
  3  5  1  0  0  0  0
  4  5  2  0  0  0  0
  4  6  1  0  0  0  0
  5  7  1  0  0  0  0
  6  8  1  0  0  0  0
  9  2  1  1  0  0  0
  9 11  1  0  0  0  0
  9 18  1  0  0  0  0
 10 16  3  0  0  0  0
 10 11  1  0  0  0  0
 11 12  2  0  0  0  0
 12 22  1  0  0  0  0
 12 17  1  0  0  0  0
 13 22  1  0  0  0  0
 14 22  1  0  0  0  0
 15 18  1  0  0  0  0
 15 20  2  0  0  0  0
 17 21  2  0  0  0  0
 18 21  1  0  0  0  0
 19 21  1  0  0  0  0
 19 20  1  0  0  0  0
M  END
