../datasets/input/FXR_1/poses/FXR96/ligand.pdb
 OpenBabel03111910173D

 62 66  0  0  0  0  0  0  0  0999 V2000
   39.3770   14.2600    1.8320 N   0  0  0  0  0  0  0  0  0  0  0  0
   35.1480   17.8850   -1.6450 N   0  0  0  0  0  0  0  0  0  0  0  0
   41.7090   11.6710    5.3900 N   0  0  0  0  0  0  0  0  0  0  0  0
   42.8850   11.5310    1.4360 N   0  0  0  0  0  0  0  0  0  0  0  0
   42.2660   12.6300    0.9220 N   0  0  0  0  0  0  0  0  0  0  0  0
   40.7120   14.4500    1.8420 C   0  0  0  0  0  0  0  0  0  0  0  0
   38.3990   15.1900    1.3730 C   0  0  0  0  0  0  0  0  0  0  0  0
   37.2270   14.7170    0.7460 C   0  0  0  0  0  0  0  0  0  0  0  0
   36.2950   15.6230    0.1960 C   0  0  0  0  0  0  0  0  0  0  0  0
   36.5370   17.0180    0.2230 C   0  0  0  0  0  0  0  0  0  0  0  0
   37.6650   17.4850    0.9260 C   0  0  0  0  0  0  0  0  0  0  0  0
   38.5680   16.5830    1.5100 C   0  0  0  0  0  0  0  0  0  0  0  0
   35.6050   18.0430   -0.3780 C   0  0  0  0  0  0  0  0  0  0  0  0
   41.5330   13.2380    1.9450 C   0  0  0  0  0  0  0  0  0  0  0  0
   41.7590   12.5850    3.1200 C   0  0  0  0  0  0  0  0  0  0  0  0
   41.3710   12.8390    4.5530 C   0  0  0  0  0  0  0  0  0  0  0  0
   43.0300   11.0480    5.1300 C   0  0  0  0  0  0  0  0  0  0  0  0
   43.1550   10.5240    3.6850 C   0  0  0  0  0  0  0  0  0  0  0  0
   42.6090   11.5320    2.7280 C   0  0  0  0  0  0  0  0  0  0  0  0
   42.4340   12.9320   -0.4710 C   0  0  0  0  0  0  0  0  0  0  0  0
   43.3040   12.1280   -1.2480 C   0  0  0  0  0  0  0  0  0  0  0  0
   43.4380   12.3190   -2.6350 C   0  0  0  0  0  0  0  0  0  0  0  0
   42.7250   13.3480   -3.2720 C   0  0  0  0  0  0  0  0  0  0  0  0
   41.8870   14.1820   -2.5170 C   0  0  0  0  0  0  0  0  0  0  0  0
   41.7470   13.9830   -1.1330 C   0  0  0  0  0  0  0  0  0  0  0  0
   42.2230   12.7710    7.9100 C   0  0  0  0  0  0  0  0  0  0  0  0
   41.8330   13.8770    8.6170 C   0  0  0  0  0  0  0  0  0  0  0  0
   42.9080   14.4960    9.3190 C   0  0  0  0  0  0  0  0  0  0  0  0
   44.1130   13.8800    9.1040 C   0  0  0  0  0  0  0  0  0  0  0  0
   41.2670   15.5360    1.7120 O   0  0  0  0  0  0  0  0  0  0  0  0
   35.3860   19.0670    0.2730 O   0  0  0  0  0  0  0  0  0  0  0  0
   39.8130   12.2930    7.0100 O   0  0  0  0  0  0  0  0  0  0  0  0
   41.3510   10.3030    7.5320 O   0  0  0  0  0  0  0  0  0  0  0  0
   41.1410   11.6640    7.0180 S   0  0  0  0  0  0  0  0  0  0  0  0
   43.9430   12.5040    8.0490 S   0  0  0  0  0  0  0  0  0  0  0  0
   34.4890   18.9860   -2.3510 C   0  0  0  0  0  0  0  0  0  0  0  0
   35.2850   16.6880   -2.4760 C   0  0  0  0  0  0  0  0  0  0  0  0
   39.0800   13.3020    1.9550 H   0  0  0  0  0  0  0  0  0  0  0  0
   37.0340   13.6550    0.6620 H   0  0  0  0  0  0  0  0  0  0  0  0
   35.3980   15.2330   -0.2560 H   0  0  0  0  0  0  0  0  0  0  0  0
   37.8400   18.5470    1.0310 H   0  0  0  0  0  0  0  0  0  0  0  0
   39.3980   16.9830    2.0580 H   0  0  0  0  0  0  0  0  0  0  0  0
   41.8780   13.7170    4.9570 H   0  0  0  0  0  0  0  0  0  0  0  0
   40.3020   13.0390    4.6380 H   0  0  0  0  0  0  0  0  0  0  0  0
   43.2160   10.2350    5.8330 H   0  0  0  0  0  0  0  0  0  0  0  0
   43.7970   11.7970    5.3120 H   0  0  0  0  0  0  0  0  0  0  0  0
   42.6100    9.5890    3.5900 H   0  0  0  0  0  0  0  0  0  0  0  0
   44.1990   10.3070    3.4580 H   0  0  0  0  0  0  0  0  0  0  0  0
   43.8840   11.3420   -0.7890 H   0  0  0  0  0  0  0  0  0  0  0  0
   44.1030   11.6830   -3.1990 H   0  0  0  0  0  0  0  0  0  0  0  0
   42.8440   13.5190   -4.3310 H   0  0  0  0  0  0  0  0  0  0  0  0
   41.3510   14.9830   -2.9940 H   0  0  0  0  0  0  0  0  0  0  0  0
   41.0810   14.6600   -0.6330 H   0  0  0  0  0  0  0  0  0  0  0  0
   40.8150   14.2270    8.6820 H   0  0  0  0  0  0  0  0  0  0  0  0
   42.7620   15.3490    9.9650 H   0  0  0  0  0  0  0  0  0  0  0  0
   45.0770   14.1420    9.5280 H   0  0  0  0  0  0  0  0  0  0  0  0
   33.6500   18.6100   -2.9370 H   0  0  0  0  0  0  0  0  0  0  0  0
   34.1100   19.7720   -1.6980 H   0  0  0  0  0  0  0  0  0  0  0  0
   35.1950   19.4530   -3.0390 H   0  0  0  0  0  0  0  0  0  0  0  0
   35.1710   16.9130   -3.5370 H   0  0  0  0  0  0  0  0  0  0  0  0
   36.2480   16.1920   -2.3650 H   0  0  0  0  0  0  0  0  0  0  0  0
   34.5060   15.9830   -2.2210 H   0  0  0  0  0  0  0  0  0  0  0  0
  1  6  1  0  0  0  0
  1  7  1  0  0  0  0
  1 38  1  0  0  0  0
  2 13  1  0  0  0  0
  2 36  1  0  0  0  0
  2 37  1  0  0  0  0
  3 16  1  0  0  0  0
  3 17  1  0  0  0  0
  3 34  1  0  0  0  0
  4  5  1  0  0  0  0
  4 19  2  0  0  0  0
  5 14  1  0  0  0  0
  5 20  1  0  0  0  0
  6 14  1  0  0  0  0
  6 30  2  0  0  0  0
  7  8  1  0  0  0  0
  7 12  2  0  0  0  0
  8  9  2  0  0  0  0
  8 39  1  0  0  0  0
  9 10  1  0  0  0  0
  9 40  1  0  0  0  0
 10 11  2  0  0  0  0
 10 13  1  0  0  0  0
 11 12  1  0  0  0  0
 11 41  1  0  0  0  0
 12 42  1  0  0  0  0
 13 31  2  0  0  0  0
 14 15  2  0  0  0  0
 15 16  1  0  0  0  0
 15 19  1  0  0  0  0
 16 43  1  0  0  0  0
 16 44  1  0  0  0  0
 17 18  1  0  0  0  0
 17 45  1  0  0  0  0
 17 46  1  0  0  0  0
 18 19  1  0  0  0  0
 18 47  1  0  0  0  0
 18 48  1  0  0  0  0
 20 21  1  0  0  0  0
 20 25  2  0  0  0  0
 21 22  2  0  0  0  0
 21 49  1  0  0  0  0
 22 23  1  0  0  0  0
 22 50  1  0  0  0  0
 23 24  2  0  0  0  0
 23 51  1  0  0  0  0
 24 25  1  0  0  0  0
 24 52  1  0  0  0  0
 25 53  1  0  0  0  0
 26 27  2  0  0  0  0
 26 34  1  0  0  0  0
 26 35  1  0  0  0  0
 27 28  1  0  0  0  0
 27 54  1  0  0  0  0
 28 29  2  0  0  0  0
 28 55  1  0  0  0  0
 29 35  1  0  0  0  0
 29 56  1  0  0  0  0
 32 34  2  0  0  0  0
 33 34  2  0  0  0  0
 36 57  1  0  0  0  0
 36 58  1  0  0  0  0
 36 59  1  0  0  0  0
 37 60  1  0  0  0  0
 37 61  1  0  0  0  0
 37 62  1  0  0  0  0
M  END
$$$$
