../datasets/input/THROMBIN/poses/5G/ligand.pdb
 OpenBabel03111910183D

 54 55  0  0  1  0  0  0  0  0999 V2000
   38.5200   20.9800   39.6660 C   0  0  1  0  0  0  0  0  0  0  0  0
   38.3040   22.4080   39.0640 C   0  0  0  0  0  0  0  0  0  0  0  0
   37.4430   23.0910   39.5990 O   0  0  0  0  0  0  0  0  0  0  0  0
   39.0090   22.8670   38.0040 N   0  0  0  0  0  0  0  0  0  0  0  0
   38.5700   24.1350   37.4270 C   0  0  2  0  0  0  0  0  0  0  0  0
   37.0340   24.2050   37.0680 C   0  0  0  0  0  0  0  0  0  0  0  0
   36.3620   23.2100   36.8100 O   0  0  0  0  0  0  0  0  0  0  0  0
   39.4190   24.2570   36.1490 C   0  0  0  0  0  0  0  0  0  0  0  0
   40.5850   23.2300   36.2580 C   0  0  0  0  0  0  0  0  0  0  0  0
   40.1300   22.2670   37.3510 C   0  0  0  0  0  0  0  0  0  0  0  0
   36.5030   25.4280   36.9230 N   0  0  0  0  0  0  0  0  0  0  0  0
   35.1270   25.6380   36.6590 C   0  0  0  0  0  0  0  0  0  0  0  0
   34.2270   25.5760   37.8870 C   0  0  0  0  0  0  0  0  0  0  0  0
   33.2340   24.6210   37.9500 C   0  0  0  0  0  0  0  0  0  0  0  0
   32.3430   24.5010   38.9570 C   0  0  0  0  0  0  0  0  0  0  0  0
   32.3680   25.4630   39.9820 C   0  0  0  0  0  0  0  0  0  0  0  0
   33.3490   26.4530   39.9660 C   0  0  0  0  0  0  0  0  0  0  0  0
   34.3050   26.4810   38.9640 C   0  0  0  0  0  0  0  0  0  0  0  0
   33.3110   27.7240   41.1430 C   0  0  0  0  0  0  0  0  0  0  0  0
   38.8730   21.0440   41.2530 C   0  0  0  0  0  0  0  0  0  0  0  0
   37.2030   20.2620   39.5530 N   0  0  0  0  0  0  0  0  0  0  0  0
   40.4180   20.9620   41.6030 C   0  0  0  0  0  0  0  0  0  0  0  0
   41.4310   21.2020   40.4430 C   0  0  0  0  0  0  0  0  0  0  0  0
   40.7660   19.4710   42.0200 C   0  0  0  0  0  0  0  0  0  0  0  0
   40.8170   21.9630   42.6700 C   0  0  0  0  0  0  0  0  0  0  0  0
   39.2260   20.4290   39.0430 H   0  0  0  0  0  0  0  0  0  0  0  0
   38.8860   24.8630   38.1780 H   0  0  0  0  0  0  0  0  0  0  0  0
   38.8240   24.3590   35.2390 H   0  0  0  0  0  0  0  0  0  0  0  0
   39.8840   25.1990   36.4490 H   0  0  0  0  0  0  0  0  0  0  0  0
   40.8170   22.7340   35.3140 H   0  0  0  0  0  0  0  0  0  0  0  0
   41.5160   23.7310   36.5340 H   0  0  0  0  0  0  0  0  0  0  0  0
   40.9630   22.0500   38.0250 H   0  0  0  0  0  0  0  0  0  0  0  0
   39.7450   21.3900   36.8240 H   0  0  0  0  0  0  0  0  0  0  0  0
   37.0660   26.2190   37.1980 H   0  0  0  0  0  0  0  0  0  0  0  0
   35.0320   26.6710   36.3150 H   0  0  0  0  0  0  0  0  0  0  0  0
   34.8760   25.1260   35.7260 H   0  0  0  0  0  0  0  0  0  0  0  0
   33.1270   23.8850   37.1570 H   0  0  0  0  0  0  0  0  0  0  0  0
   31.5600   23.7490   39.0000 H   0  0  0  0  0  0  0  0  0  0  0  0
   31.6430   25.4930   40.7910 H   0  0  0  0  0  0  0  0  0  0  0  0
   35.0820   27.2360   38.8820 H   0  0  0  0  0  0  0  0  0  0  0  0
   38.3830   21.9000   41.7230 H   0  0  0  0  0  0  0  0  0  0  0  0
   37.2340   19.3280   39.9930 H   0  0  0  0  0  0  0  0  0  0  0  0
   36.8800   20.2190   38.5730 H   0  0  0  0  0  0  0  0  0  0  0  0
   42.4640   21.2820   40.7880 H   0  0  0  0  0  0  0  0  0  0  0  0
   41.4760   20.4620   39.6420 H   0  0  0  0  0  0  0  0  0  0  0  0
   41.1830   22.1440   39.9500 H   0  0  0  0  0  0  0  0  0  0  0  0
   40.4730   18.8430   41.1760 H   0  0  0  0  0  0  0  0  0  0  0  0
   41.8490   19.4180   42.1490 H   0  0  0  0  0  0  0  0  0  0  0  0
   40.2400   19.2750   42.9570 H   0  0  0  0  0  0  0  0  0  0  0  0
   40.7060   23.0030   42.3540 H   0  0  0  0  0  0  0  0  0  0  0  0
   40.1860   21.7830   43.5420 H   0  0  0  0  0  0  0  0  0  0  0  0
   41.8410   21.9700   43.0490 H   0  0  0  0  0  0  0  0  0  0  0  0
   38.4200   20.2140   41.7990 H   0  0  0  0  0  0  0  0  0  0  0  0
   36.5750   20.9120   40.0540 H   0  0  0  0  0  0  0  0  0  0  0  0
  1 26  1  6  0  0  0
  1  2  1  0  0  0  0
  1 21  1  0  0  0  0
  1 20  1  0  0  0  0
  2  4  1  0  0  0  0
  2  3  2  0  0  0  0
  4 10  1  0  0  0  0
  4  5  1  0  0  0  0
  5  8  1  0  0  0  0
  5  6  1  0  0  0  0
  5 27  1  1  0  0  0
  6  7  2  0  0  0  0
  6 11  1  0  0  0  0
  8 28  1  0  0  0  0
  8  9  1  0  0  0  0
  8 29  1  0  0  0  0
  9 30  1  0  0  0  0
  9 31  1  0  0  0  0
  9 10  1  0  0  0  0
 10 33  1  0  0  0  0
 10 32  1  0  0  0  0
 11 12  1  0  0  0  0
 11 34  1  0  0  0  0
 12 36  1  0  0  0  0
 12 35  1  0  0  0  0
 12 13  1  0  0  0  0
 13 14  2  0  0  0  0
 13 18  1  0  0  0  0
 14 37  1  0  0  0  0
 14 15  1  0  0  0  0
 15 38  1  0  0  0  0
 15 16  2  0  0  0  0
 16 17  1  0  0  0  0
 16 39  1  0  0  0  0
 17 18  2  0  0  0  0
 17 19  1  0  0  0  0
 18 40  1  0  0  0  0
 20 22  1  0  0  0  0
 20 41  1  0  0  0  0
 20 53  1  0  0  0  0
 21 43  1  0  0  0  0
 21 42  1  0  0  0  0
 21 54  1  0  0  0  0
 22 23  1  0  0  0  0
 22 24  1  0  0  0  0
 22 25  1  0  0  0  0
 23 45  1  0  0  0  0
 23 46  1  0  0  0  0
 23 44  1  0  0  0  0
 24 47  1  0  0  0  0
 24 48  1  0  0  0  0
 24 49  1  0  0  0  0
 25 50  1  0  0  0  0
 25 52  1  0  0  0  0
 25 51  1  0  0  0  0
M  END
$$$$
