../datasets/input/FXR_2/poses/INT02/ligand.pdb
 OpenBabel03111910173D

 47 50  0  0  0  0  0  0  0  0999 V2000
   40.6360   14.5940    1.6900 N   0  0  0  0  0  0  0  0  0  0  0  0
   44.6320   11.8990    3.2390 N   0  0  0  0  0  0  0  0  0  0  0  0
   35.7640   18.5960   -0.6490 C   0  0  0  0  0  0  0  0  0  0  0  0
   36.6850   17.7150    0.1400 C   0  0  0  0  0  0  0  0  0  0  0  0
   38.0760   17.9250    0.1040 C   0  0  0  0  0  0  0  0  0  0  0  0
   38.9470   17.0880    0.8310 C   0  0  0  0  0  0  0  0  0  0  0  0
   38.4390   15.9630    1.5140 C   0  0  0  0  0  0  0  0  0  0  0  0
   39.3340   14.9830    2.2560 C   0  0  0  0  0  0  0  0  0  0  0  0
   41.5950   14.0490    2.4640 C   0  0  0  0  0  0  0  0  0  0  0  0
   42.7690   13.5030    1.6220 C   0  0  0  0  0  0  0  0  0  0  0  0
   42.7750   11.9600    1.6210 C   0  0  0  0  0  0  0  0  0  0  0  0
   43.2940   11.3680    2.9370 C   0  0  0  0  0  0  0  0  0  0  0  0
   44.6950   13.3730    3.3310 C   0  0  0  0  0  0  0  0  0  0  0  0
   44.1560   14.0350    2.0480 C   0  0  0  0  0  0  0  0  0  0  0  0
   42.3350   14.0210    0.2740 C   0  0  0  0  0  0  0  0  0  0  0  0
   43.0440   13.9320   -0.9370 C   0  0  0  0  0  0  0  0  0  0  0  0
   42.4260   14.4010   -2.1110 C   0  0  0  0  0  0  0  0  0  0  0  0
   41.1130   14.9100   -2.0600 C   0  0  0  0  0  0  0  0  0  0  0  0
   40.4060   14.9790   -0.8410 C   0  0  0  0  0  0  0  0  0  0  0  0
   41.0590   14.5710    0.3380 C   0  0  0  0  0  0  0  0  0  0  0  0
   37.0480   15.7450    1.5370 C   0  0  0  0  0  0  0  0  0  0  0  0
   36.1800   16.6280    0.8770 C   0  0  0  0  0  0  0  0  0  0  0  0
   34.5480   18.3190   -0.7060 O   0  5  0  0  0  0  0  0  0  0  0  0
   36.2090   19.5010   -1.3850 O   0  0  0  0  0  0  0  0  0  0  0  0
   41.5810   13.9890    3.6950 O   0  0  0  0  0  0  0  0  0  0  0  0
   45.4740    9.5670    3.9410 O   0  0  0  0  0  0  0  0  0  0  0  0
   46.9590   11.6060    4.2060 O   0  0  0  0  0  0  0  0  0  0  0  0
   43.3560   14.3300   -3.7650 Br  0  0  0  0  0  0  0  0  0  0  0  0
   45.6330   10.9800    4.3030 S   0  0  0  0  0  0  0  0  0  0  0  0
   38.4540   18.7350   -0.5020 H   0  0  0  0  0  0  0  0  0  0  0  0
   40.0110   17.2640    0.8000 H   0  0  0  0  0  0  0  0  0  0  0  0
   39.4870   15.4140    3.2490 H   0  0  0  0  0  0  0  0  0  0  0  0
   38.7750   14.0620    2.4210 H   0  0  0  0  0  0  0  0  0  0  0  0
   43.3910   11.5960    0.8000 H   0  0  0  0  0  0  0  0  0  0  0  0
   41.7670   11.5860    1.4330 H   0  0  0  0  0  0  0  0  0  0  0  0
   42.6190   11.5780    3.7700 H   0  0  0  0  0  0  0  0  0  0  0  0
   43.3390   10.2860    2.8490 H   0  0  0  0  0  0  0  0  0  0  0  0
   45.7270   13.6900    3.4870 H   0  0  0  0  0  0  0  0  0  0  0  0
   44.1380   13.7020    4.2110 H   0  0  0  0  0  0  0  0  0  0  0  0
   44.1210   15.1160    2.1770 H   0  0  0  0  0  0  0  0  0  0  0  0
   44.8700   13.8510    1.2480 H   0  0  0  0  0  0  0  0  0  0  0  0
   44.0350   13.5140   -0.9640 H   0  0  0  0  0  0  0  0  0  0  0  0
   40.6380   15.2520   -2.9620 H   0  0  0  0  0  0  0  0  0  0  0  0
   39.3860   15.3280   -0.8510 H   0  0  0  0  0  0  0  0  0  0  0  0
   36.6320   14.8910    2.0490 H   0  0  0  0  0  0  0  0  0  0  0  0
   35.1180   16.4450    0.9020 H   0  0  0  0  0  0  0  0  0  0  0  0
   45.1830   11.1330    5.5410 H   0  0  0  0  0  0  0  0  0  0  0  0
  1  8  1  0  0  0  0
  1  9  1  0  0  0  0
  1 20  1  0  0  0  0
  2 12  1  0  0  0  0
  2 13  1  0  0  0  0
  2 29  1  0  0  0  0
  3  4  1  0  0  0  0
  3 23  1  0  0  0  0
  3 24  2  0  0  0  0
  4  5  1  0  0  0  0
  4 22  2  0  0  0  0
  5  6  2  0  0  0  0
  5 30  1  0  0  0  0
  6  7  1  0  0  0  0
  6 31  1  0  0  0  0
  7  8  1  0  0  0  0
  7 21  2  0  0  0  0
  8 32  1  0  0  0  0
  8 33  1  0  0  0  0
  9 10  1  0  0  0  0
  9 25  2  0  0  0  0
 10 11  1  0  0  0  0
 10 14  1  0  0  0  0
 10 15  1  0  0  0  0
 11 12  1  0  0  0  0
 11 34  1  0  0  0  0
 11 35  1  0  0  0  0
 12 36  1  0  0  0  0
 12 37  1  0  0  0  0
 13 14  1  0  0  0  0
 13 38  1  0  0  0  0
 13 39  1  0  0  0  0
 14 40  1  0  0  0  0
 14 41  1  0  0  0  0
 15 16  1  0  0  0  0
 15 20  2  0  0  0  0
 16 17  2  0  0  0  0
 16 42  1  0  0  0  0
 17 18  1  0  0  0  0
 17 28  1  0  0  0  0
 18 19  2  0  0  0  0
 18 43  1  0  0  0  0
 19 20  1  0  0  0  0
 19 44  1  0  0  0  0
 21 22  1  0  0  0  0
 21 45  1  0  0  0  0
 22 46  1  0  0  0  0
 26 29  2  0  0  0  0
 27 29  2  0  0  0  0
 29 47  1  0  0  0  0
M  CHG  1  23  -1
M  END
$$$$
