@<TRIPOS>MOLECULE
ligand_2.pdb
49 53 1 0 0
SMALL
AMBER ff14SB


@<TRIPOS>ATOM
      1 C19        52.0780   47.9890   48.1930 C.ar      1 LIG   -0.1330
      2 H14        52.5180   47.1750   48.7670 H         1 LIG    0.1375
      3 C20        52.8790   48.7740   47.3690 C.ar      1 LIG   -0.1170
      4 H15        53.9480   48.5880   47.3380 H         1 LIG    0.1450
      5 C18        50.7100   48.2380   48.2760 C.ar      1 LIG   -0.1310
      6 H13        50.0810   47.6250   48.9180 H         1 LIG    0.1340
      7 C17        50.1470   49.2710   47.5290 C.ar      1 LIG   -0.1330
      8 H12        49.0800   49.4710   47.6030 H         1 LIG    0.1375
      9 C16        50.9480   50.0350   46.6820 C.ar      1 LIG   -0.1170
     10 H11        50.4920   50.8150   46.0770 H         1 LIG    0.1450
     11 C3         52.3220   49.7930   46.5920 C.ar      1 LIG   -0.0398
     12 C2         53.1460   50.5460   45.6670 C.ar      1 LIG   -0.0442
     13 C1         54.0190   50.0350   44.6510 C.ar      1 LIG   -0.3756
     14 C6         54.4180   48.7740   44.2690 C.ar      1 LIG    0.7352
     15 N1         53.9940   47.6580   44.8940 N.pl3     1 LIG   -0.8389
     16 H1         53.2830   47.7740   45.6050 H         1 LIG    0.4478
     17 C7         54.2210   46.2910   44.3970 C.3       1 LIG    0.1988
     18 C8         53.2130   45.2850   45.0090 C.3       1 LIG    0.1281
     19 H2         53.4850   44.2650   44.7180 H         1 LIG    0.0617
     20 O2         53.2120   45.3620   46.4510 O.3       1 LIG   -0.4306
     21 C23        52.0030   44.7260   46.9250 C.3       1 LIG    0.1204
     22 C22        50.9430   45.0700   45.8690 C.3       1 LIG   -0.1064
     23 C21        51.7380   45.5500   44.6470 C.3       1 LIG   -0.1054
     24 H16        51.5580   46.6120   44.4880 H         1 LIG    0.0617
     25 H21        51.4370   45.0120   43.7490 H         1 LIG    0.0617
     26 H17        50.3410   44.1890   45.6350 H         1 LIG    0.0547
     27 H18        50.2790   45.8590   46.2310 H         1 LIG    0.0547
     28 H19        52.1610   43.6440   46.9640 H         1 LIG    0.0497
     29 H20        51.7230   45.1050   47.9080 H         1 LIG    0.0497
     30 H3         55.2350   45.9760   44.6560 H         1 LIG    0.0627
     31 H4         54.1290   46.2630   43.3080 H         1 LIG    0.0627
     32 N2         55.2000   48.5890   43.2060 N.ar      1 LIG   -0.7820
     33 C9         55.5320   49.6810   42.5040 C.ar      1 LIG    0.6819
     34 H5         56.1480   49.5200   41.6260 H         1 LIG    0.0561
     35 N3         55.1520   50.9470   42.7590 N.ar      1 LIG   -0.7100
     36 C10        54.4010   51.0750   43.8580 C.ar      1 LIG    0.5737
     37 O1         53.8650   52.2670   44.2780 O.2       1 LIG   -0.2134
     38 C4         53.0960   51.9010   45.3770 C.ar      1 LIG    0.0498
     39 C5         52.4970   52.9650   46.1800 C.ar      1 LIG   -0.0438
     40 C11        52.4680   54.2640   45.6490 C.ar      1 LIG   -0.1015
     41 H6         52.8530   54.4500   44.6510 H         1 LIG    0.1485
     42 C12        51.9360   55.3310   46.3690 C.ar      1 LIG   -0.1350
     43 H7         51.9050   56.3250   45.9300 H         1 LIG    0.1355
     44 C13        51.4380   55.1270   47.6520 C.ar      1 LIG   -0.1160
     45 H8         51.0270   55.9570   48.2220 H         1 LIG    0.1340
     46 C14        51.4860   53.8540   48.2090 C.ar      1 LIG   -0.1350
     47 H9         51.1270   53.6850   49.2240 H         1 LIG    0.1355
     48 C15        52.0170   52.7890   47.4850 C.ar      1 LIG   -0.1015
     49 H10        52.0860   51.8350   47.9920 H         1 LIG    0.1485
@<TRIPOS>BOND
     1    1    2 1
     2    1    3 ar
     3    1    5 ar
     4    3    4 1
     5    3   11 ar
     6    5    6 1
     7    5    7 ar
     8    7    8 1
     9    7    9 ar
    10    9   10 1
    11    9   11 ar
    12   11   12 1
    13   12   13 ar
    14   12   38 ar
    15   13   14 ar
    16   13   36 ar
    17   14   15 1
    18   14   32 ar
    19   15   16 1
    20   15   17 1
    21   17   18 1
    22   17   30 1
    23   17   31 1
    24   18   19 1
    25   18   20 1
    26   18   23 1
    27   20   21 1
    28   21   22 1
    29   21   28 1
    30   21   29 1
    31   22   23 1
    32   22   26 1
    33   22   27 1
    34   23   24 1
    35   23   25 1
    36   32   33 ar
    37   33   34 1
    38   33   35 ar
    39   35   36 ar
    40   36   37 ar
    41   37   38 ar
    42   38   39 1
    43   39   40 ar
    44   39   48 ar
    45   40   41 1
    46   40   42 ar
    47   42   43 1
    48   42   44 ar
    49   44   45 1
    50   44   46 ar
    51   46   47 1
    52   46   48 ar
    53   48   49 1
@<TRIPOS>SUBSTRUCTURE
     1 LIG     1 RESIDUE           4 A     LIG     0 ROOT
