../datasets/input/ACK1/poses/ACK1_2/ligand.pdb
 OpenBabel03111910153D

 49 53  0  0  1  0  0  0  0  0999 V2000
   52.0780   47.9890   48.1930 C   0  0  0  0  0  0  0  0  0  0  0  0
   52.5180   47.1750   48.7670 H   0  0  0  0  0  0  0  0  0  0  0  0
   52.8790   48.7740   47.3690 C   0  0  0  0  0  0  0  0  0  0  0  0
   53.9480   48.5880   47.3380 H   0  0  0  0  0  0  0  0  0  0  0  0
   50.7100   48.2380   48.2760 C   0  0  0  0  0  0  0  0  0  0  0  0
   50.0810   47.6250   48.9180 H   0  0  0  0  0  0  0  0  0  0  0  0
   50.1470   49.2710   47.5290 C   0  0  0  0  0  0  0  0  0  0  0  0
   49.0800   49.4710   47.6030 H   0  0  0  0  0  0  0  0  0  0  0  0
   50.9480   50.0350   46.6820 C   0  0  0  0  0  0  0  0  0  0  0  0
   50.4920   50.8150   46.0770 H   0  0  0  0  0  0  0  0  0  0  0  0
   52.3220   49.7930   46.5920 C   0  0  0  0  0  0  0  0  0  0  0  0
   53.1460   50.5460   45.6670 C   0  0  1  0  0  0  0  0  0  0  0  0
   54.0190   50.0350   44.6510 C   0  0  0  0  0  0  0  0  0  0  0  0
   54.4180   48.7740   44.2690 C   0  0  0  0  0  0  0  0  0  0  0  0
   53.9940   47.6580   44.8940 N   0  0  0  0  0  0  0  0  0  0  0  0
   53.2830   47.7740   45.6050 H   0  0  0  0  0  0  0  0  0  0  0  0
   54.2210   46.2910   44.3970 C   0  0  0  0  0  0  0  0  0  0  0  0
   53.2130   45.2850   45.0090 C   0  0  1  0  0  0  0  0  0  0  0  0
   53.4850   44.2650   44.7180 H   0  0  0  0  0  0  0  0  0  0  0  0
   53.2120   45.3620   46.4510 O   0  0  0  0  0  0  0  0  0  0  0  0
   52.0030   44.7260   46.9250 C   0  0  0  0  0  0  0  0  0  0  0  0
   50.9430   45.0700   45.8690 C   0  0  0  0  0  0  0  0  0  0  0  0
   51.7380   45.5500   44.6470 C   0  0  0  0  0  0  0  0  0  0  0  0
   51.5580   46.6120   44.4880 H   0  0  0  0  0  0  0  0  0  0  0  0
   51.4370   45.0120   43.7490 H   0  0  0  0  0  0  0  0  0  0  0  0
   50.3410   44.1890   45.6350 H   0  0  0  0  0  0  0  0  0  0  0  0
   50.2790   45.8590   46.2310 H   0  0  0  0  0  0  0  0  0  0  0  0
   52.1610   43.6440   46.9640 H   0  0  0  0  0  0  0  0  0  0  0  0
   51.7230   45.1050   47.9080 H   0  0  0  0  0  0  0  0  0  0  0  0
   55.2350   45.9760   44.6560 H   0  0  0  0  0  0  0  0  0  0  0  0
   54.1290   46.2630   43.3080 H   0  0  0  0  0  0  0  0  0  0  0  0
   55.2000   48.5890   43.2060 N   0  0  0  0  0  0  0  0  0  0  0  0
   55.5320   49.6810   42.5040 C   0  0  0  0  0  0  0  0  0  0  0  0
   56.1480   49.5200   41.6260 H   0  0  0  0  0  0  0  0  0  0  0  0
   55.1520   50.9470   42.7590 N   0  0  0  0  0  0  0  0  0  0  0  0
   54.4010   51.0750   43.8580 C   0  0  0  0  0  0  0  0  0  0  0  0
   53.8650   52.2670   44.2780 O   0  0  0  0  0  0  0  0  0  0  0  0
   53.0960   51.9010   45.3770 C   0  0  2  0  0  0  0  0  0  0  0  0
   52.4970   52.9650   46.1800 C   0  0  0  0  0  0  0  0  0  0  0  0
   52.4680   54.2640   45.6490 C   0  0  0  0  0  0  0  0  0  0  0  0
   52.8530   54.4500   44.6510 H   0  0  0  0  0  0  0  0  0  0  0  0
   51.9360   55.3310   46.3690 C   0  0  0  0  0  0  0  0  0  0  0  0
   51.9050   56.3250   45.9300 H   0  0  0  0  0  0  0  0  0  0  0  0
   51.4380   55.1270   47.6520 C   0  0  0  0  0  0  0  0  0  0  0  0
   51.0270   55.9570   48.2220 H   0  0  0  0  0  0  0  0  0  0  0  0
   51.4860   53.8540   48.2090 C   0  0  0  0  0  0  0  0  0  0  0  0
   51.1270   53.6850   49.2240 H   0  0  0  0  0  0  0  0  0  0  0  0
   52.0170   52.7890   47.4850 C   0  0  0  0  0  0  0  0  0  0  0  0
   52.0860   51.8350   47.9920 H   0  0  0  0  0  0  0  0  0  0  0  0
  1  2  1  0  0  0  0
  1  3  2  0  0  0  0
  1  5  1  0  0  0  0
  3  4  1  0  0  0  0
  3 11  1  0  0  0  0
  5  6  1  0  0  0  0
  5  7  2  0  0  0  0
  7  8  1  0  0  0  0
  7  9  1  0  0  0  0
  9 10  1  0  0  0  0
  9 11  2  0  0  0  0
 12 11  1  6  0  0  0
 12 13  1  0  0  0  0
 12 38  1  0  0  0  0
 13 14  2  0  0  0  0
 13 36  1  0  0  0  0
 14 15  1  0  0  0  0
 14 32  1  0  0  0  0
 15 16  1  0  0  0  0
 15 17  1  0  0  0  0
 17 18  1  0  0  0  0
 17 30  1  0  0  0  0
 17 31  1  0  0  0  0
 18 19  1  6  0  0  0
 18 20  1  0  0  0  0
 18 23  1  0  0  0  0
 20 21  1  0  0  0  0
 21 22  1  0  0  0  0
 21 28  1  0  0  0  0
 21 29  1  0  0  0  0
 22 23  1  0  0  0  0
 22 26  1  0  0  0  0
 22 27  1  0  0  0  0
 23 24  1  0  0  0  0
 23 25  1  0  0  0  0
 32 33  2  0  0  0  0
 33 34  1  0  0  0  0
 33 35  1  0  0  0  0
 35 36  2  0  0  0  0
 36 37  1  0  0  0  0
 37 38  1  0  0  0  0
 38 39  1  1  0  0  0
 39 40  2  0  0  0  0
 39 48  1  0  0  0  0
 40 41  1  0  0  0  0
 40 42  1  0  0  0  0
 42 43  1  0  0  0  0
 42 44  2  0  0  0  0
 44 45  1  0  0  0  0
 44 46  1  0  0  0  0
 46 47  1  0  0  0  0
 46 48  2  0  0  0  0
 48 49  1  0  0  0  0
M  END
$$$$
