../datasets/input/HSP90_1/poses/HSP90_84/ligand.pdb
 OpenBabel02211915413D

 27 29  0  0  0  0  0  0  0  0999 V2000
   -2.5380    9.9920   24.2190 N   0  0  0  0  0  0  0  0  0  0  0  0
   -3.5030   11.8790   23.3300 N   0  0  0  0  0  0  0  0  0  0  0  0
   -1.2880   12.0000   23.9300 N   0  0  0  0  0  0  0  0  0  0  0  0
    5.2450   14.6030   25.9490 C   0  0  0  0  0  0  0  0  0  0  0  0
    3.3590   13.8680   24.6600 C   0  0  0  0  0  0  0  0  0  0  0  0
    2.0670   14.4330   24.7690 C   0  0  0  0  0  0  0  0  0  0  0  0
    0.9280   13.6130   24.6950 C   0  0  0  0  0  0  0  0  0  0  0  0
    1.0410   12.2180   24.5150 C   0  0  0  0  0  0  0  0  0  0  0  0
    2.3310   11.6410   24.3930 C   0  0  0  0  0  0  0  0  0  0  0  0
    3.5560    9.7500   23.5400 C   0  0  0  0  0  0  0  0  0  0  0  0
    3.4740   12.4770   24.4710 C   0  0  0  0  0  0  0  0  0  0  0  0
   -0.1880   11.4060   24.4460 C   0  0  0  0  0  0  0  0  0  0  0  0
   -0.2220   10.0570   24.8630 C   0  0  0  0  0  0  0  0  0  0  0  0
   -1.4520    9.3770   24.7380 C   0  0  0  0  0  0  0  0  0  0  0  0
   -2.3940   11.2640   23.8500 C   0  0  0  0  0  0  0  0  0  0  0  0
   -1.6110    7.9660   25.1260 C   0  0  0  0  0  0  0  0  0  0  0  0
   -1.4440    6.9630   24.1470 C   0  0  0  0  0  0  0  0  0  0  0  0
   -1.5890    5.6000   24.4710 C   0  0  0  0  0  0  0  0  0  0  0  0
   -1.9010    5.2230   25.7890 C   0  0  0  0  0  0  0  0  0  0  0  0
   -2.0620    6.2100   26.7790 C   0  0  0  0  0  0  0  0  0  0  0  0
   -1.9160    7.5740   26.4550 C   0  0  0  0  0  0  0  0  0  0  0  0
    4.5300   14.5920   24.7220 O   0  0  0  0  0  0  0  0  0  0  0  0
    2.4070   10.2770   24.1860 O   0  0  0  0  0  0  0  0  0  0  0  0
   -2.0790    3.5550   26.1930 Cl  0  0  0  0  0  0  0  0  0  0  0  0
   -2.0950    8.7430   27.7170 Cl  0  0  0  0  0  0  0  0  0  0  0  0
   -4.3880   11.3960   23.3190 H   0  0  0  0  0  0  0  0  0  0  0  0
   -3.4740   12.8630   23.1080 H   0  0  0  0  0  0  0  0  0  0  0  0
  1 15  2  0  0  0  0
  1 14  1  0  0  0  0
  2 27  1  0  0  0  0
  2 26  1  0  0  0  0
  2 15  1  0  0  0  0
  3 15  1  0  0  0  0
  3 12  2  0  0  0  0
  4 22  1  0  0  0  0
  5 11  2  0  0  0  0
  5 22  1  0  0  0  0
  5  6  1  0  0  0  0
  6  7  2  0  0  0  0
  7  8  1  0  0  0  0
  8  9  2  0  0  0  0
  8 12  1  0  0  0  0
  9 23  1  0  0  0  0
  9 11  1  0  0  0  0
 10 23  1  0  0  0  0
 12 13  1  0  0  0  0
 13 14  2  0  0  0  0
 14 16  1  0  0  0  0
 16 17  2  0  0  0  0
 16 21  1  0  0  0  0
 17 18  1  0  0  0  0
 18 19  2  0  0  0  0
 19 24  1  0  0  0  0
 19 20  1  0  0  0  0
 20 21  2  0  0  0  0
 21 25  1  0  0  0  0
M  END
