@<TRIPOS>MOLECULE
23480
 50 52 0 0 0
SMALL
GASTEIGER
****
Structure written by MMmdl.
@<TRIPOS>ATOM
      1 C          34.9009    4.9769   11.4174 C.3     1  LIG1        0.0833
      2 O          35.7432    5.3667   12.4886 O.3     1  LIG1       -0.4536
      3 C          37.0750    5.4456   12.2999 C.2     1  LIG1        0.4026
      4 O          37.6240    5.2031   11.2233 O.2     1  LIG1       -0.2263
      5 N          37.7153    5.8364   13.4582 N.am    1  LIG1       -0.2673
      6 C          37.0173    6.1412   14.7978 C.3     1  LIG1        0.0195
      7 C          37.3829    7.5402   15.3340 C.3     1  LIG1       -0.0186
      8 C          38.9114    7.7621   15.4291 C.3     1  LIG1        0.0235
      9 N          39.1835    9.1385   15.8446 N.pl3   1  LIG1       -0.3409
     10 C          40.4829    9.5699   16.1594 C.ar    1  LIG1        0.0279
     11 C          41.4815    8.7321   16.6725 C.ar    1  LIG1       -0.0408
     12 C          42.7506    9.2417   16.9424 C.ar    1  LIG1       -0.0594
     13 C          43.0417   10.5800   16.6715 C.ar    1  LIG1       -0.0534
     14 C          42.0577   11.4350   16.1601 C.ar    1  LIG1       -0.0084
     15 C          42.3473   12.8247   15.8292 C.ar    1  LIG1        0.0376
     16 S          43.4366   13.7822   16.8006 S.2     1  LIG1       -0.0822
     17 C          43.2082   15.1991   15.7938 C.ar    1  LIG1        0.0778
     18 C          43.9488   16.4202   16.1914 C.2     1  LIG1        0.0818
     19 O          44.6955   16.3700   17.1931 O.co2   1  LIG1       -0.5440
     20 O          43.8161   17.4656   15.5160 O.co2   1  LIG1       -0.5440
     21 C          42.3248   14.9326   14.7526 C.ar    1  LIG1        0.1514
     22 O          41.9117   15.8500   13.8469 O.3     1  LIG1       -0.4839
     23 C          40.9786   16.8101   14.3368 C.3     1  LIG1        0.1287
     24 C          40.2316   17.4946   13.1897 C.2     1  LIG1        0.0789
     25 O          40.8772   17.7240   12.1431 O.co2   1  LIG1       -0.5463
     26 O          39.0259   17.7704   13.3758 O.co2   1  LIG1       -0.5463
     27 C          41.8775   13.6145   14.7795 C.ar    1  LIG1        0.0749
     28 BR         40.6623   12.9713   13.4584 Br      1  LIG1       -0.0453
     29 C          40.7764   10.9164   15.9496 C.ar    1  LIG1       -0.0326
     30 C          39.6099    7.4194   14.0884 C.3     1  LIG1       -0.0186
     31 C          39.2402    6.0199   13.5606 C.3     1  LIG1        0.0195
     32 H          33.8622    4.9680   11.7475 H       1  LIG1        0.0661
     33 H          34.9868    5.6730   10.5821 H       1  LIG1        0.0661
     34 H          35.1554    3.9760   11.0666 H       1  LIG1        0.0661
     35 H          35.9326    6.0668   14.7205 H       1  LIG1        0.0466
     36 H          37.3194    5.3852   15.5226 H       1  LIG1        0.0466
     37 H          36.9559    8.3026   14.6823 H       1  LIG1        0.0298
     38 H          36.9346    7.6919   16.3159 H       1  LIG1        0.0298
     39 H          39.3608    7.6369   14.4440 H       1  LIG1        0.0498
     40 H          38.3877    9.7586   15.8969 H       1  LIG1        0.1463
     41 H          41.3038    7.6884   16.8704 H       1  LIG1        0.0636
     42 H          43.5100    8.5997   17.3637 H       1  LIG1        0.0618
     43 H          44.0359   10.9552   16.8655 H       1  LIG1        0.0624
     44 H          40.2570   16.2936   14.9701 H       1  LIG1        0.0760
     45 H          41.4591   17.5609   14.9666 H       1  LIG1        0.0760
     46 H          39.9957   11.5812   15.6086 H       1  LIG1        0.0642
     47 H          39.3376    8.1595   13.3359 H       1  LIG1        0.0298
     48 H          40.6918    7.4850   14.2037 H       1  LIG1        0.0298
     49 H          39.7045    5.2681   14.1988 H       1  LIG1        0.0466
     50 H          39.6700    5.8781   12.5690 H       1  LIG1        0.0466
@<TRIPOS>BOND
     1     1     2    1
     2     1    32    1
     3     1    33    1
     4     1    34    1
     5     2     3    1
     6     3     4    2
     7     3     5   am
     8     5    31    1
     9     5     6    1
    10     6     7    1
    11     6    35    1
    12     6    36    1
    13     7     8    1
    14     7    37    1
    15     7    38    1
    16     8     9    1
    17     8    30    1
    18     8    39    1
    19     9    10    1
    20     9    40    1
    21    10    29   ar
    22    10    11   ar
    23    11    12   ar
    24    11    41    1
    25    12    13   ar
    26    12    42    1
    27    13    14   ar
    28    13    43    1
    29    14    15    1
    30    14    29   ar
    31    15    27   ar
    32    15    16   ar
    33    16    17   ar
    34    17    18    1
    35    17    21   ar
    36    18    19   ar
    37    18    20   ar
    38    21    22    1
    39    21    27   ar
    40    22    23    1
    41    23    24    1
    42    23    44    1
    43    23    45    1
    44    24    25   ar
    45    24    26   ar
    46    27    28    1
    47    29    46    1
    48    30    31    1
    49    30    47    1
    50    30    48    1
    51    31    49    1
    52    31    50    1
