../datasets/input/SCHR_THROMBIN/poses/throm_lig6b/ligand.pdb
 OpenBabel02211915413D

 55 57  0  0  1  0  0  0  0  0999 V2000
   18.2330  -13.2130   21.6900 N   0  0  0  0  0  0  0  0  0  0  0  0
   18.0290  -11.9150   21.0170 C   0  0  2  0  0  0  0  0  0  0  0  0
   17.3650  -13.7580   22.5770 C   0  0  0  0  0  0  0  0  0  0  0  0
   16.3640  -13.1510   22.9610 O   0  0  0  0  0  0  0  0  0  0  0  0
   16.6280  -11.7390   20.3830 C   0  0  0  0  0  0  0  0  0  0  0  0
   16.1740  -12.6140   19.6440 O   0  0  0  0  0  0  0  0  0  0  0  0
   19.1350  -11.8560   19.9530 C   0  0  0  0  0  0  0  0  0  0  0  0
   17.6230  -15.1590   23.1650 C   0  0  2  0  0  0  0  0  0  0  0  0
   15.9570  -10.6180   20.6810 N   0  0  0  0  0  0  0  0  0  0  0  0
   20.2330  -12.7820   20.4360 C   0  0  0  0  0  0  0  0  0  0  0  0
   16.3840  -15.9510   23.0830 N   0  3  0  0  0  0  0  0  0  0  0  0
   18.1080  -15.0940   24.6320 C   0  0  0  0  0  0  0  0  0  0  0  0
   14.6010  -10.2790   20.2620 C   0  0  0  0  0  0  0  0  0  0  0  0
   19.5140  -13.8110   21.3000 C   0  0  0  0  0  0  0  0  0  0  0  0
   19.5370  -14.6090   24.8070 C   0  0  0  0  0  0  0  0  0  0  0  0
   13.5530  -10.3780   21.3700 C   0  0  0  0  0  0  0  0  0  0  0  0
   19.7920  -13.3120   25.2900 C   0  0  0  0  0  0  0  0  0  0  0  0
   12.7720  -11.5440   21.5860 C   0  0  0  0  0  0  0  0  0  0  0  0
   21.1050  -12.8310   25.4010 C   0  0  0  0  0  0  0  0  0  0  0  0
   11.7790  -11.5480   22.5900 C   0  0  0  0  0  0  0  0  0  0  0  0
   22.1850  -13.6590   25.0460 C   0  0  0  0  0  0  0  0  0  0  0  0
   11.5700  -10.4150   23.3970 C   0  0  0  0  0  0  0  0  0  0  0  0
   21.9440  -14.9730   24.6000 C   0  0  0  0  0  0  0  0  0  0  0  0
   12.3690   -9.2730   23.2180 C   0  0  0  0  0  0  0  0  0  0  0  0
   20.6230  -15.4480   24.4790 C   0  0  0  0  0  0  0  0  0  0  0  0
   13.3450   -9.2540   22.2020 C   0  0  0  0  0  0  0  0  0  0  0  0
   12.1870   -7.9180   24.2730 Cl  0  0  0  0  0  0  0  0  0  0  0  0
   12.9870  -12.8120   20.7790 C   0  0  0  0  0  0  0  0  0  0  0  0
   18.1990  -11.1320   21.7550 H   0  0  0  0  0  0  0  0  0  0  0  0
   18.7710  -12.1970   18.9820 H   0  0  0  0  0  0  0  0  0  0  0  0
   19.5120  -10.8470   19.8330 H   0  0  0  0  0  0  0  0  0  0  0  0
   18.3520  -15.7100   22.5720 H   0  0  0  0  0  0  0  0  0  0  0  0
   16.4530   -9.9180   21.2310 H   0  0  0  0  0  0  0  0  0  0  0  0
   20.7980  -13.2350   19.6200 H   0  0  0  0  0  0  0  0  0  0  0  0
   20.9390  -12.2230   21.0510 H   0  0  0  0  0  0  0  0  0  0  0  0
   16.5300  -16.8690   23.4770 H   0  0  0  0  0  0  0  0  0  0  0  0
   15.6580  -15.4670   23.5980 H   0  0  0  0  0  0  0  0  0  0  0  0
   16.1010  -16.0320   22.1180 H   0  0  0  0  0  0  0  0  0  0  0  0
   17.4350  -14.4700   25.2230 H   0  0  0  0  0  0  0  0  0  0  0  0
   18.0500  -16.0860   25.0820 H   0  0  0  0  0  0  0  0  0  0  0  0
   14.6230   -9.2390   19.9410 H   0  0  0  0  0  0  0  0  0  0  0  0
   14.2980  -10.8460   19.3810 H   0  0  0  0  0  0  0  0  0  0  0  0
   20.1310  -14.0740   22.1580 H   0  0  0  0  0  0  0  0  0  0  0  0
   19.3320  -14.7160   20.7200 H   0  0  0  0  0  0  0  0  0  0  0  0
   18.9840  -12.6800   25.6000 H   0  0  0  0  0  0  0  0  0  0  0  0
   21.2720  -11.8320   25.7740 H   0  0  0  0  0  0  0  0  0  0  0  0
   11.1760  -12.4290   22.7620 H   0  0  0  0  0  0  0  0  0  0  0  0
   23.1980  -13.2960   25.1360 H   0  0  0  0  0  0  0  0  0  0  0  0
   22.7760  -15.6150   24.3500 H   0  0  0  0  0  0  0  0  0  0  0  0
   20.4500  -16.4530   24.1210 H   0  0  0  0  0  0  0  0  0  0  0  0
   13.9540   -8.3730   22.0760 H   0  0  0  0  0  0  0  0  0  0  0  0
   10.8150  -10.4350   24.1700 H   0  0  0  0  0  0  0  0  0  0  0  0
   12.2300  -13.5620   21.0120 H   0  0  0  0  0  0  0  0  0  0  0  0
   12.9420  -12.6180   19.7090 H   0  0  0  0  0  0  0  0  0  0  0  0
   13.9600  -13.2420   21.0170 H   0  0  0  0  0  0  0  0  0  0  0  0
  1  2  1  0  0  0  0
  1  3  1  0  0  0  0
  1 14  1  0  0  0  0
  2  5  1  0  0  0  0
  2  7  1  0  0  0  0
  2 29  1  1  0  0  0
  3  4  2  0  0  0  0
  3  8  1  0  0  0  0
  5  6  2  0  0  0  0
  5  9  1  0  0  0  0
  7 10  1  0  0  0  0
  7 30  1  0  0  0  0
  7 31  1  0  0  0  0
  8 11  1  0  0  0  0
  8 12  1  0  0  0  0
  8 32  1  6  0  0  0
  9 13  1  0  0  0  0
  9 33  1  0  0  0  0
 10 14  1  0  0  0  0
 10 34  1  0  0  0  0
 10 35  1  0  0  0  0
 11 36  1  0  0  0  0
 11 37  1  0  0  0  0
 11 38  1  0  0  0  0
 12 15  1  0  0  0  0
 12 39  1  0  0  0  0
 12 40  1  0  0  0  0
 13 16  1  0  0  0  0
 13 41  1  0  0  0  0
 13 42  1  0  0  0  0
 14 43  1  0  0  0  0
 14 44  1  0  0  0  0
 15 17  2  0  0  0  0
 15 25  1  0  0  0  0
 16 18  2  0  0  0  0
 16 26  1  0  0  0  0
 17 19  1  0  0  0  0
 17 45  1  0  0  0  0
 18 20  1  0  0  0  0
 18 28  1  0  0  0  0
 19 21  2  0  0  0  0
 19 46  1  0  0  0  0
 20 22  2  0  0  0  0
 20 47  1  0  0  0  0
 21 23  1  0  0  0  0
 21 48  1  0  0  0  0
 22 24  1  0  0  0  0
 22 52  1  0  0  0  0
 23 25  2  0  0  0  0
 23 49  1  0  0  0  0
 24 26  2  0  0  0  0
 24 27  1  0  0  0  0
 25 50  1  0  0  0  0
 26 51  1  0  0  0  0
 28 53  1  0  0  0  0
 28 54  1  0  0  0  0
 28 55  1  0  0  0  0
M  CHG  1  11   1
M  END
