@<TRIPOS>MOLECULE
6b
 55 57 0 0 0
SMALL
GASTEIGER
****

@<TRIPOS>ATOM
      1 N          18.2326  -13.2133   21.6902 N.am    1  UNL1       -0.2853
      2 C          18.0295  -11.9153   21.0170 C.3     1  UNL1        0.1024
      3 C          17.3649  -13.7582   22.5771 C.2     1  UNL1        0.2646
      4 O          16.3644  -13.1506   22.9608 O.2     1  UNL1       -0.2694
      5 C          16.6275  -11.7387   20.3833 C.2     1  UNL1        0.2338
      6 O          16.1735  -12.6139   19.6444 O.2     1  UNL1       -0.2738
      7 C          19.1347  -11.8556   19.9527 C.3     1  UNL1       -0.0243
      8 C          17.6230  -15.1593   23.1645 C.3     1  UNL1        0.0574
      9 N          15.9572  -10.6181   20.6810 N.am    1  UNL1       -0.3097
     10 C          20.2327  -12.7823   20.4359 C.3     1  UNL1       -0.0350
     11 N          16.3841  -15.9514   23.0833 N.4     1  UNL1        0.2276
     12 C          18.1081  -15.0943   24.6316 C.3     1  UNL1        0.0241
     13 C          14.6005  -10.2793   20.2619 C.3     1  UNL1        0.0372
     14 C          19.5144  -13.8108   21.3000 C.3     1  UNL1        0.0157
     15 C          19.5371  -14.6090   24.8070 C.ar    1  UNL1       -0.0415
     16 C          13.5525  -10.3776   21.3703 C.ar    1  UNL1       -0.0260
     17 C          19.7917  -13.3123   25.2901 C.ar    1  UNL1       -0.0584
     18 C          12.7721  -11.5442   21.5857 C.ar    1  UNL1       -0.0457
     19 C          21.1054  -12.8312   25.4007 C.ar    1  UNL1       -0.0615
     20 C          11.7792  -11.5483   22.5905 C.ar    1  UNL1       -0.0572
     21 C          22.1850  -13.6592   25.0464 C.ar    1  UNL1       -0.0617
     22 C          11.5701  -10.4151   23.3971 C.ar    1  UNL1       -0.0431
     23 C          21.9443  -14.9725   24.6001 C.ar    1  UNL1       -0.0615
     24 C          12.3694   -9.2730   23.2182 C.ar    1  UNL1        0.0413
     25 C          20.6231  -15.4476   24.4787 C.ar    1  UNL1       -0.0584
     26 C          13.3447   -9.2541   22.2017 C.ar    1  UNL1       -0.0385
     27 CL         12.1866   -7.9177   24.2734 Cl      1  UNL1       -0.0835
     28 C          12.9870  -12.8115   20.7791 C.3     1  UNL1       -0.0394
     29 H          18.1987  -11.1319   21.7552 H       1  UNL1        0.0597
     30 H          18.7713  -12.1966   18.9815 H       1  UNL1        0.0288
     31 H          19.5119  -10.8469   19.8329 H       1  UNL1        0.0288
     32 H          18.3523  -15.7097   22.5722 H       1  UNL1        0.0952
     33 H          16.4535   -9.9185   21.2309 H       1  UNL1        0.1491
     34 H          20.7979  -13.2353   19.6198 H       1  UNL1        0.0281
     35 H          20.9390  -12.2232   21.0514 H       1  UNL1        0.0281
     36 H          16.5305  -16.8685   23.4768 H       1  UNL1        0.2002
     37 H          15.6578  -15.4670   23.5979 H       1  UNL1        0.2002
     38 H          16.1005  -16.0317   22.1180 H       1  UNL1        0.2002
     39 H          17.4346  -14.4699   25.2226 H       1  UNL1        0.0373
     40 H          18.0499  -16.0861   25.0816 H       1  UNL1        0.0373
     41 H          14.6229   -9.2395   19.9408 H       1  UNL1        0.0512
     42 H          14.2982  -10.8463   19.3811 H       1  UNL1        0.0512
     43 H          20.1305  -14.0741   22.1584 H       1  UNL1        0.0465
     44 H          19.3317  -14.7162   20.7198 H       1  UNL1        0.0465
     45 H          18.9836  -12.6796   25.5998 H       1  UNL1        0.0620
     46 H          21.2718  -11.8319   25.7737 H       1  UNL1        0.0618
     47 H          11.1758  -12.4294   22.7620 H       1  UNL1        0.0621
     48 H          23.1977  -13.2959   25.1364 H       1  UNL1        0.0618
     49 H          22.7761  -15.6154   24.3500 H       1  UNL1        0.0618
     50 H          20.4503  -16.4525   24.1211 H       1  UNL1        0.0620
     51 H          13.9540   -8.3729   22.0762 H       1  UNL1        0.0635
     52 H          10.8148  -10.4350   24.1703 H       1  UNL1        0.0632
     53 H          12.2300  -13.5615   21.0116 H       1  UNL1        0.0278
     54 H          12.9422  -12.6183   19.7085 H       1  UNL1        0.0278
     55 H          13.9602  -13.2416   21.0165 H       1  UNL1        0.0278
@<TRIPOS>BOND
     1     1     2    1
     2     1     3   am
     3     1    14    1
     4     2     5    1
     5     2     7    1
     6     3     4    2
     7     3     8    1
     8     5     6    2
     9     5     9   am
    10     7    10    1
    11     8    11    1
    12     8    12    1
    13     9    13    1
    14    10    14    1
    15    12    15    1
    16    13    16    1
    17    15    17   ar
    18    15    25   ar
    19    16    18   ar
    20    16    26   ar
    21    17    19   ar
    22    18    20   ar
    23    18    28    1
    24    19    21   ar
    25    20    22   ar
    26    21    23   ar
    27    22    24   ar
    28    23    25   ar
    29    24    26   ar
    30    24    27    1
    31     2    29    1
    32     7    30    1
    33     7    31    1
    34     8    32    1
    35     9    33    1
    36    10    34    1
    37    10    35    1
    38    11    36    1
    39    11    37    1
    40    11    38    1
    41    12    39    1
    42    12    40    1
    43    13    41    1
    44    13    42    1
    45    14    43    1
    46    14    44    1
    47    17    45    1
    48    19    46    1
    49    20    47    1
    50    21    48    1
    51    22    52    1
    52    23    49    1
    53    25    50    1
    54    26    51    1
    55    28    53    1
    56    28    54    1
    57    28    55    1
