../datasets/input/FXR_2/poses/FXR83/ligand.pdb
 OpenBabel02211915413D

 57 61  0  0  0  0  0  0  0  0999 V2000
   40.6090   14.6340    1.6520 N   0  0  0  0  0  0  0  0  0  0  0  0
   44.2740   11.5910    3.0860 N   0  0  0  0  0  0  0  0  0  0  0  0
   35.7470   18.6440   -0.6560 C   0  0  0  0  0  0  0  0  0  0  0  0
   36.6680   17.7650    0.1350 C   0  0  0  0  0  0  0  0  0  0  0  0
   38.0560   17.9820    0.1140 C   0  0  0  0  0  0  0  0  0  0  0  0
   38.9250   17.1490    0.8490 C   0  0  0  0  0  0  0  0  0  0  0  0
   38.4180   16.0120    1.5130 C   0  0  0  0  0  0  0  0  0  0  0  0
   39.3160   15.0260    2.2400 C   0  0  0  0  0  0  0  0  0  0  0  0
   41.5430   14.0170    2.3990 C   0  0  0  0  0  0  0  0  0  0  0  0
   42.7210   13.5220    1.5320 C   0  0  0  0  0  0  0  0  0  0  0  0
   42.6390   12.0060    1.3050 C   0  0  0  0  0  0  0  0  0  0  0  0
   42.9580   11.2120    2.5590 C   0  0  0  0  0  0  0  0  0  0  0  0
   44.5090   13.0340    3.3270 C   0  0  0  0  0  0  0  0  0  0  0  0
   44.1170   13.8820    2.0910 C   0  0  0  0  0  0  0  0  0  0  0  0
   44.0630    9.7350    5.1350 C   0  0  0  0  0  0  0  0  0  0  0  0
   43.2580   10.6870    5.8040 C   0  0  0  0  0  0  0  0  0  0  0  0
   42.2770   10.2800    6.7270 C   0  0  0  0  0  0  0  0  0  0  0  0
   42.1440    8.9290    7.0600 C   0  0  0  0  0  0  0  0  0  0  0  0
   42.9410    7.9800    6.4030 C   0  0  0  0  0  0  0  0  0  0  0  0
   43.8670    8.3550    5.4120 C   0  0  0  0  0  0  0  0  0  0  0  0
   42.3520   14.1950    0.2370 C   0  0  0  0  0  0  0  0  0  0  0  0
   43.0800   14.1750   -0.9660 C   0  0  0  0  0  0  0  0  0  0  0  0
   42.4550   14.6570   -2.1320 C   0  0  0  0  0  0  0  0  0  0  0  0
   41.1220   15.1160   -2.0790 C   0  0  0  0  0  0  0  0  0  0  0  0
   40.4050   15.1290   -0.8660 C   0  0  0  0  0  0  0  0  0  0  0  0
   41.0590   14.7060    0.3080 C   0  0  0  0  0  0  0  0  0  0  0  0
   37.0280   15.7880    1.5290 C   0  0  0  0  0  0  0  0  0  0  0  0
   36.1610   16.6690    0.8630 C   0  0  0  0  0  0  0  0  0  0  0  0
   34.5250   18.4070   -0.6750 O   0  5  0  0  0  0  0  0  0  0  0  0
   36.2030   19.5120   -1.4320 O   0  0  0  0  0  0  0  0  0  0  0  0
   41.5040   13.8690    3.6230 O   0  0  0  0  0  0  0  0  0  0  0  0
   45.4340    9.3360    2.8400 O   0  0  0  0  0  0  0  0  0  0  0  0
   46.3460   11.0210    4.5030 O   0  0  0  0  0  0  0  0  0  0  0  0
   44.6660    7.0620    4.5960 Cl  0  0  0  0  0  0  0  0  0  0  0  0
   43.3900   14.6480   -3.7860 Br  0  0  0  0  0  0  0  0  0  0  0  0
   45.2010   10.3550    3.8670 S   0  0  0  0  0  0  0  0  0  0  0  0
   41.1980   11.4150    7.4250 Cl  0  0  0  0  0  0  0  0  0  0  0  0
   38.4380   18.7980   -0.4810 H   0  0  0  0  0  0  0  0  0  0  0  0
   39.9880   17.3310    0.8330 H   0  0  0  0  0  0  0  0  0  0  0  0
   39.4920   15.4510    3.2300 H   0  0  0  0  0  0  0  0  0  0  0  0
   38.7560   14.1070    2.4110 H   0  0  0  0  0  0  0  0  0  0  0  0
   43.3180   11.7060    0.5060 H   0  0  0  0  0  0  0  0  0  0  0  0
   41.6370   11.7380    0.9730 H   0  0  0  0  0  0  0  0  0  0  0  0
   42.1940   11.3580    3.3220 H   0  0  0  0  0  0  0  0  0  0  0  0
   42.9520   10.1530    2.3240 H   0  0  0  0  0  0  0  0  0  0  0  0
   45.5620   13.2020    3.5530 H   0  0  0  0  0  0  0  0  0  0  0  0
   43.9550   13.3570    4.2070 H   0  0  0  0  0  0  0  0  0  0  0  0
   44.1670   14.9430    2.3390 H   0  0  0  0  0  0  0  0  0  0  0  0
   44.8650   13.7180    1.3150 H   0  0  0  0  0  0  0  0  0  0  0  0
   43.3610   11.7380    5.5810 H   0  0  0  0  0  0  0  0  0  0  0  0
   41.4160    8.6180    7.7950 H   0  0  0  0  0  0  0  0  0  0  0  0
   42.8200    6.9400    6.6460 H   0  0  0  0  0  0  0  0  0  0  0  0
   44.0760   13.7660   -1.0020 H   0  0  0  0  0  0  0  0  0  0  0  0
   40.6390   15.4560   -2.9770 H   0  0  0  0  0  0  0  0  0  0  0  0
   39.3710   15.4320   -0.8750 H   0  0  0  0  0  0  0  0  0  0  0  0
   36.6130   14.9340    2.0400 H   0  0  0  0  0  0  0  0  0  0  0  0
   35.1010   16.4810    0.8770 H   0  0  0  0  0  0  0  0  0  0  0  0
  1  8  1  0  0  0  0
  1  9  1  0  0  0  0
  1 26  1  0  0  0  0
  2 12  1  0  0  0  0
  2 13  1  0  0  0  0
  2 36  1  0  0  0  0
  3  4  1  0  0  0  0
  3 29  1  0  0  0  0
  3 30  2  0  0  0  0
  4  5  1  0  0  0  0
  4 28  2  0  0  0  0
  5  6  2  0  0  0  0
  5 38  1  0  0  0  0
  6  7  1  0  0  0  0
  6 39  1  0  0  0  0
  7  8  1  0  0  0  0
  7 27  2  0  0  0  0
  8 40  1  0  0  0  0
  8 41  1  0  0  0  0
  9 10  1  0  0  0  0
  9 31  2  0  0  0  0
 10 11  1  0  0  0  0
 10 14  1  0  0  0  0
 10 21  1  0  0  0  0
 11 12  1  0  0  0  0
 11 42  1  0  0  0  0
 11 43  1  0  0  0  0
 12 44  1  0  0  0  0
 12 45  1  0  0  0  0
 13 14  1  0  0  0  0
 13 46  1  0  0  0  0
 13 47  1  0  0  0  0
 14 48  1  0  0  0  0
 14 49  1  0  0  0  0
 15 16  1  0  0  0  0
 15 20  2  0  0  0  0
 15 36  1  0  0  0  0
 16 17  2  0  0  0  0
 16 50  1  0  0  0  0
 17 18  1  0  0  0  0
 17 37  1  0  0  0  0
 18 19  2  0  0  0  0
 18 51  1  0  0  0  0
 19 20  1  0  0  0  0
 19 52  1  0  0  0  0
 20 34  1  0  0  0  0
 21 22  1  0  0  0  0
 21 26  2  0  0  0  0
 22 23  2  0  0  0  0
 22 53  1  0  0  0  0
 23 24  1  0  0  0  0
 23 35  1  0  0  0  0
 24 25  2  0  0  0  0
 24 54  1  0  0  0  0
 25 26  1  0  0  0  0
 25 55  1  0  0  0  0
 27 28  1  0  0  0  0
 27 56  1  0  0  0  0
 28 57  1  0  0  0  0
 32 36  2  0  0  0  0
 33 36  2  0  0  0  0
M  CHG  1  29  -1
M  END
