@<TRIPOS>MOLECULE
7a
 58 60 0 0 0
SMALL
GASTEIGER
****

@<TRIPOS>ATOM
      1 N          18.3714  -13.1884   21.6150 N.am    1  UNL1       -0.2853
      2 C          18.2376  -11.8958   20.9137 C.3     1  UNL1        0.1024
      3 C          17.4535  -13.6998   22.4744 C.2     1  UNL1        0.2646
      4 O          16.4564  -13.0653   22.8232 O.2     1  UNL1       -0.2694
      5 C          16.8822  -11.7251   20.1933 C.2     1  UNL1        0.2338
      6 O          16.5597  -12.5203   19.3090 O.2     1  UNL1       -0.2738
      7 C          19.3957  -11.8806   19.9002 C.3     1  UNL1       -0.0243
      8 C          17.6438  -15.1075   23.0722 C.3     1  UNL1        0.0574
      9 N          16.1070  -10.7041   20.5768 N.am    1  UNL1       -0.3097
     10 C          20.4400  -12.8262   20.4504 C.3     1  UNL1       -0.0350
     11 N          16.3782  -15.8524   22.9564 N.4     1  UNL1        0.2276
     12 C          18.0887  -15.0599   24.5536 C.3     1  UNL1        0.0241
     13 C          14.7606  -10.4180   20.0946 C.3     1  UNL1        0.0371
     14 C          19.6520  -13.8246   21.2876 C.3     1  UNL1        0.0157
     15 C          19.5204  -14.6005   24.7756 C.ar    1  UNL1       -0.0415
     16 C          13.6484  -10.9027   21.0223 C.ar    1  UNL1       -0.0272
     17 C          19.7809  -13.3155   25.2861 C.ar    1  UNL1       -0.0584
     18 C          13.1225  -12.2215   20.9619 C.ar    1  UNL1       -0.0458
     19 C          21.0968  -12.8490   25.4254 C.ar    1  UNL1       -0.0615
     20 C          12.0912  -12.6033   21.8422 C.ar    1  UNL1       -0.0583
     21 C          22.1731  -13.6821   25.0741 C.ar    1  UNL1       -0.0617
     22 C          11.5685  -11.6941   22.7743 C.ar    1  UNL1       -0.0586
     23 C          21.9269  -14.9875   24.6077 C.ar    1  UNL1       -0.0615
     24 C          12.0837  -10.3888   22.8432 C.ar    1  UNL1       -0.0501
     25 C          20.6031  -15.4477   24.4583 C.ar    1  UNL1       -0.0584
     26 C          13.1193   -9.9960   21.9695 C.ar    1  UNL1       -0.0539
     27 C          13.6358  -13.2672   19.9913 C.3     1  UNL1       -0.0394
     28 C          11.5359   -9.4383   23.8829 C.3     1  UNL1       -0.0397
     29 H          18.3734  -11.0983   21.6443 H       1  UNL1        0.0597
     30 H          19.0784  -12.2392   18.9195 H       1  UNL1        0.0288
     31 H          19.8046  -10.8864   19.7618 H       1  UNL1        0.0288
     32 H          18.3684  -15.6849   22.5004 H       1  UNL1        0.0952
     33 H          16.5078  -10.0402   21.2346 H       1  UNL1        0.1491
     34 H          21.0275  -13.3043   19.6664 H       1  UNL1        0.0281
     35 H          21.1295  -12.2772   21.0928 H       1  UNL1        0.0281
     36 H          16.4826  -16.7785   23.3421 H       1  UNL1        0.2002
     37 H          15.6587  -15.3490   23.4622 H       1  UNL1        0.2002
     38 H          16.1117  -15.9119   21.9847 H       1  UNL1        0.2002
     39 H          17.4088  -14.4266   25.1274 H       1  UNL1        0.0373
     40 H          17.9991  -16.0532   24.9949 H       1  UNL1        0.0373
     41 H          14.6771   -9.3349   20.0093 H       1  UNL1        0.0512
     42 H          14.6113  -10.7985   19.0847 H       1  UNL1        0.0512
     43 H          20.2228  -14.0966   22.1726 H       1  UNL1        0.0465
     44 H          19.4702  -14.7290   20.7056 H       1  UNL1        0.0465
     45 H          18.9751  -12.6789   25.5923 H       1  UNL1        0.0620
     46 H          21.2663  -11.8561   25.8144 H       1  UNL1        0.0618
     47 H          11.6934  -13.6069   21.8142 H       1  UNL1        0.0620
     48 H          23.1872  -13.3284   25.1807 H       1  UNL1        0.0618
     49 H          22.7565  -15.6343   24.3606 H       1  UNL1        0.0618
     50 H          20.4262  -16.4446   24.0808 H       1  UNL1        0.0620
     51 H          13.5196   -8.9948   22.0333 H       1  UNL1        0.0623
     52 H          10.7772  -12.0109   23.4403 H       1  UNL1        0.0620
     53 H          12.9012  -14.0601   19.8494 H       1  UNL1        0.0278
     54 H          13.8513  -12.8508   19.0091 H       1  UNL1        0.0278
     55 H          14.5410  -13.7246   20.3895 H       1  UNL1        0.0278
     56 H          11.8364   -8.4090   23.6897 H       1  UNL1        0.0278
     57 H          10.4482   -9.4991   23.9130 H       1  UNL1        0.0278
     58 H          11.8982   -9.7214   24.8678 H       1  UNL1        0.0278
@<TRIPOS>BOND
     1     1     2    1
     2     1     3   am
     3     1    14    1
     4     2     5    1
     5     2     7    1
     6     3     4    2
     7     3     8    1
     8     5     6    2
     9     5     9   am
    10     7    10    1
    11     8    11    1
    12     8    12    1
    13     9    13    1
    14    10    14    1
    15    12    15    1
    16    13    16    1
    17    15    17   ar
    18    15    25   ar
    19    16    18   ar
    20    16    26   ar
    21    17    19   ar
    22    18    20   ar
    23    18    27    1
    24    19    21   ar
    25    20    22   ar
    26    21    23   ar
    27    22    24   ar
    28    23    25   ar
    29    24    26   ar
    30    24    28    1
    31     2    29    1
    32     7    30    1
    33     7    31    1
    34     8    32    1
    35     9    33    1
    36    10    34    1
    37    10    35    1
    38    11    36    1
    39    11    37    1
    40    11    38    1
    41    12    39    1
    42    12    40    1
    43    13    41    1
    44    13    42    1
    45    14    43    1
    46    14    44    1
    47    17    45    1
    48    19    46    1
    49    20    47    1
    50    21    48    1
    51    22    52    1
    52    23    49    1
    53    25    50    1
    54    26    51    1
    55    27    53    1
    56    27    54    1
    57    27    55    1
    58    28    56    1
    59    28    57    1
    60    28    58    1
