mk2
 OpenBabel02251910023D

 35 37  0  0  1  0  0  0  0  0999 V2000
   11.8131   -2.0987    1.0831 C   0  0  0  0  0  0  0  0  0  0  0  0
   13.1333   -2.4684    0.5574 N   0  0  0  0  0  0  0  0  0  0  0  0
   14.2852   -2.5314    1.2456 C   0  0  0  0  0  0  0  0  0  0  0  0
   14.4325   -2.3247    2.5605 N   0  0  0  0  0  0  0  0  0  0  0  0
   15.3128   -2.8536    0.4545 N   0  0  0  0  0  0  0  0  0  0  0  0
   14.9090   -3.0354   -0.9381 C   0  0  2  0  0  0  0  0  0  0  0  0
   15.5120   -1.9635   -1.8621 C   0  0  0  0  0  0  0  0  0  0  0  0
   16.1761   -2.3128   -3.0621 C   0  0  0  0  0  0  0  0  0  0  0  0
   16.6331   -1.3123   -3.9325 C   0  0  0  0  0  0  0  0  0  0  0  0
   16.4137    0.0423   -3.6289 C   0  0  0  0  0  0  0  0  0  0  0  0
   15.7987    0.4336   -2.4212 C   0  0  0  0  0  0  0  0  0  0  0  0
   15.5498    1.8628   -2.1170 C   0  0  0  0  0  0  0  0  0  0  0  0
   15.2538    2.7806   -3.1517 C   0  0  0  0  0  0  0  0  0  0  0  0
   14.9337    4.1235   -2.8692 N   0  0  0  0  0  0  0  0  0  0  0  0
   14.9158    4.5775   -1.5397 C   0  0  0  0  0  0  0  0  0  0  0  0
   15.2415    3.6932   -0.4988 C   0  0  0  0  0  0  0  0  0  0  0  0
   15.2368    4.2623    1.1299 Cl  0  0  0  0  0  0  0  0  0  0  0  0
   15.5569    2.3503   -0.7887 C   0  0  0  0  0  0  0  0  0  0  0  0
   15.3759   -0.5880   -1.5399 C   0  0  0  0  0  0  0  0  0  0  0  0
   13.3951   -2.8049   -0.8053 C   0  0  0  0  0  0  0  0  0  0  0  0
   12.5343   -2.8851   -1.6873 O   0  0  0  0  0  0  0  0  0  0  0  0
   15.1891   -4.4888   -1.3782 H   0  0  0  0  0  0  0  0  0  0  0  0
   11.6714   -1.0233    0.9797 H   0  0  0  0  0  0  0  0  0  0  0  0
   11.0131   -2.6016    0.5387 H   0  0  0  0  0  0  0  0  0  0  0  0
   11.7238   -2.3619    2.1367 H   0  0  0  0  0  0  0  0  0  0  0  0
   15.3678   -2.3767    2.9680 H   0  0  0  0  0  0  0  0  0  0  0  0
   16.3362   -3.3388   -3.3593 H   0  0  0  0  0  0  0  0  0  0  0  0
   17.1290   -1.5869   -4.8535 H   0  0  0  0  0  0  0  0  0  0  0  0
   16.7244    0.7863   -4.3450 H   0  0  0  0  0  0  0  0  0  0  0  0
   15.2246    2.4443   -4.1780 H   0  0  0  0  0  0  0  0  0  0  0  0
   14.6511    5.6013   -1.3159 H   0  0  0  0  0  0  0  0  0  0  0  0
   15.8011    1.6884    0.0253 H   0  0  0  0  0  0  0  0  0  0  0  0
   14.8782   -0.3032   -0.6256 H   0  0  0  0  0  0  0  0  0  0  0  0
   13.6879   -2.0198    3.1841 H   0  0  0  0  0  0  0  0  0  0  0  0
   16.2530   -2.9563    0.7788 H   0  0  0  0  0  0  0  0  0  0  0  0
  2  1  1  0  0  0  0
  3  2  1  0  0  0  0
  4  3  1  0  0  0  0
  5  3  2  0  0  0  0
  5 35  1  0  0  0  0
  6  5  1  0  0  0  0
  6 22  1  6  0  0  0
  7  6  1  0  0  0  0
  8  7  2  0  0  0  0
  9  8  1  0  0  0  0
 10  9  2  0  0  0  0
 11 10  1  0  0  0  0
 12 11  1  0  0  0  0
 13 12  2  0  0  0  0
 14 13  1  0  0  0  0
 15 14  2  0  0  0  0
 16 15  1  0  0  0  0
 17 16  1  0  0  0  0
 18 12  1  0  0  0  0
 18 16  2  0  0  0  0
 19  7  1  0  0  0  0
 19 11  2  0  0  0  0
 20  2  1  0  0  0  0
 20  6  1  0  0  0  0
 21 20  2  0  0  0  0
 23  1  1  0  0  0  0
 24  1  1  0  0  0  0
 25  1  1  0  0  0  0
 26  4  1  0  0  0  0
 27  8  1  0  0  0  0
 28  9  1  0  0  0  0
 29 10  1  0  0  0  0
 30 13  1  0  0  0  0
 31 15  1  0  0  0  0
 32 18  1  0  0  0  0
 33 19  1  0  0  0  0
 34  4  1  0  0  0  0
M  END
$$$$
