# Molecule written by the XED library from Cresset
@<TRIPOS>MOLECULE
mk2
    35     37      1
SMALL
USER_CHARGES
@<TRIPOS>ATOM
      1  C          11.8131   -2.0987    1.0831 C.3       1 MOL1        0.0242
      2  N          13.1333   -2.4684    0.5574 N.am      1 MOL1       -0.1265
      3  C          14.2852   -2.5314    1.2456 C.2       1 MOL1        0.0195
      4  N          14.4325   -2.3247    2.5605 N.am      1 MOL1       -0.2416
      5  N          15.3128   -2.8536    0.4545 N.pl3     1 MOL1       -0.1600
      6  C          14.9090   -3.0354   -0.9381 C.3       1 MOL1        0.0855
      7  C          15.5120   -1.9635   -1.8621 C.ar      1 MOL1       -0.0392
      8  C          16.1761   -2.3128   -3.0621 C.ar      1 MOL1       -0.0841
      9  C          16.6331   -1.3123   -3.9325 C.ar      1 MOL1       -0.0890
     10  C          16.4137    0.0423   -3.6289 C.ar      1 MOL1       -0.0814
     11  C          15.7987    0.4336   -2.4212 C.ar      1 MOL1       -0.0184
     12  C          15.5498    1.8628   -2.1170 C.ar      1 MOL1       -0.0018
     13  C          15.2538    2.7806   -3.1517 C.ar      1 MOL1        0.0387
     14  C          14.9337    4.1235   -2.8692 N.ar      1 MOL1       -0.3377
     15  C          14.9158    4.5775   -1.5397 C.ar      1 MOL1        0.0472
     16  C          15.2415    3.6932   -0.4988 C.ar      1 MOL1        0.0729
     17  CL         15.2368    4.2623    1.1299 Cl        1 MOL1       -0.1066
     18  C          15.5569    2.3503   -0.7887 C.ar      1 MOL1       -0.0113
     19  C          15.3759   -0.5880   -1.5399 C.ar      1 MOL1       -0.0750
     20  C          13.3951   -2.8049   -0.8053 C.2       1 MOL1        0.1879
     21  O          12.5343   -2.8851   -1.6873 O.2       1 MOL1       -0.4603
     22  H          15.1891   -4.4888   -1.3782 H         1 MOL1        0.0656
     23  H          11.6714   -1.0233    0.9797 H         1 MOL1        0.0548
     24  H          11.0131   -2.6016    0.5387 H         1 MOL1        0.0548
     25  H          11.7238   -2.3619    2.1367 H         1 MOL1        0.0548
     26  H          15.3678   -2.3767    2.9680 H         1 MOL1        0.1868
     27  H          16.3362   -3.3388   -3.3593 H         1 MOL1        0.0908
     28  H          17.1290   -1.5869   -4.8535 H         1 MOL1        0.0906
     29  H          16.7244    0.7863   -4.3450 H         1 MOL1        0.0910
     30  H          15.2246    2.4443   -4.1780 H         1 MOL1        0.0999
     31  H          14.6511    5.6013   -1.3159 H         1 MOL1        0.1026
     32  H          15.8011    1.6884    0.0253 H         1 MOL1        0.0943
     33  H          14.8782   -0.3032   -0.6256 H         1 MOL1        0.0912
     34  H          13.6879   -2.0198    3.1841 H         1 MOL1        0.1868
     35  H          16.2530   -2.9563    0.7788 H         1 MOL1        0.2183
@<TRIPOS>BOND
     1      2      1 1 
     2      3      2 am
     3      4      3 am
     4      5      3 2 
     5      6      5 1 
     6      7      6 1 
     7      8      7 ar
     8      9      8 ar
     9     10      9 ar
    10     11     10 ar
    11     12     11 1 
    12     13     12 ar
    13     14     13 ar
    14     15     14 ar
    15     16     15 ar
    16     17     16 1 
    17     18     12 ar
    18     18     16 ar
    19     19      7 ar
    20     19     11 ar
    21     20      2 am
    22     20      6 1 
    23     21     20 2 
    24      5     35 1 
    25     22      6 1 
    26     23      1 1 
    27     24      1 1 
    28     25      1 1 
    29     26      4 1 
    30     27      8 1 
    31     28      9 1 
    32     29     10 1 
    33     30     13 1 
    34     31     15 1 
    35     32     18 1 
    36     33     19 1 
    37     34      4 1 
@<TRIPOS>SUBSTRUCTURE
     1 MOL1         1 MOLECULE          1 A
