../datasets/input/HSP90_3/poses/HSP90_34/ligand.pdb
 OpenBabel02211915403D

 29 32  0  0  0  0  0  0  0  0999 V2000
   -3.6040   10.3300   24.9520 O   0  0  0  0  0  0  0  0  0  0  0  0
   -2.2950   10.3030   24.5610 C   0  0  0  0  0  0  0  0  0  0  0  0
   -1.9190   11.0080   23.4000 C   0  0  0  0  0  0  0  0  0  0  0  0
   -0.5740   11.0410   22.9840 C   0  0  0  0  0  0  0  0  0  0  0  0
   -0.2410   11.7550   21.8670 O   0  0  0  0  0  0  0  0  0  0  0  0
    0.4100   10.3590   23.7390 C   0  0  0  0  0  0  0  0  0  0  0  0
    0.0350    9.6570   24.9040 C   0  0  0  0  0  0  0  0  0  0  0  0
   -1.3140    9.6140   25.3160 C   0  0  0  0  0  0  0  0  0  0  0  0
   -1.6480    8.8890   26.4920 N   0  0  0  0  0  0  0  0  0  0  0  0
   -2.2240    9.3640   27.6210 C   0  0  0  0  0  0  0  0  0  0  0  0
   -2.5240   10.5320   27.8610 O   0  0  0  0  0  0  0  0  0  0  0  0
   -2.4150    8.3170   28.4470 N   0  0  0  0  0  0  0  0  0  0  0  0
   -1.9470    7.1450   27.8460 C   0  0  0  0  0  0  0  0  0  0  0  0
   -1.9170    5.8230   28.3170 C   0  0  0  0  0  0  0  0  0  0  0  0
   -1.3510    4.8490   27.4610 C   0  0  0  0  0  0  0  0  0  0  0  0
   -0.8360    5.2100   26.1880 C   0  0  0  0  0  0  0  0  0  0  0  0
   -0.8790    6.5530   25.7410 C   0  0  0  0  0  0  0  0  0  0  0  0
   -1.4580    7.5000   26.6050 C   0  0  0  0  0  0  0  0  0  0  0  0
    1.8310   10.3660   23.3390 C   0  0  0  0  0  0  0  0  0  0  0  0
    2.3820    9.2350   22.8350 C   0  0  0  0  0  0  0  0  0  0  0  0
    3.7570    9.1950   22.3840 C   0  0  0  0  0  0  0  0  0  0  0  0
    4.4770   10.3250   22.4530 C   0  0  0  0  0  0  0  0  0  0  0  0
    3.9060   11.5040   22.9380 N   0  0  0  0  0  0  0  0  0  0  0  0
    2.6270   11.6100   23.3710 C   0  0  0  0  0  0  0  0  0  0  0  0
    2.1930   12.6960   23.7500 O   0  0  0  0  0  0  0  0  0  0  0  0
   -4.1590   10.8300   24.3730 H   0  0  0  0  0  0  0  0  0  0  0  0
   -0.9760   12.1970   21.4720 H   0  0  0  0  0  0  0  0  0  0  0  0
   -2.8260    8.3500   29.3690 H   0  0  0  0  0  0  0  0  0  0  0  0
    4.4880   12.3290   22.9480 H   0  0  0  0  0  0  0  0  0  0  0  0
  2  1  1  0  0  0  0
  2  8  2  0  0  0  0
  3  2  1  0  0  0  0
  4  3  2  0  0  0  0
  4  6  1  0  0  0  0
  5  4  1  0  0  0  0
  6  7  2  0  0  0  0
  7  8  1  0  0  0  0
  8  9  1  0  0  0  0
  9 18  1  0  0  0  0
  9 10  1  0  0  0  0
 10 11  2  0  0  0  0
 10 12  1  0  0  0  0
 12 28  1  0  0  0  0
 13 14  1  0  0  0  0
 13 12  1  0  0  0  0
 15 14  2  0  0  0  0
 16 15  1  0  0  0  0
 17 16  2  0  0  0  0
 17 18  1  0  0  0  0
 18 13  2  0  0  0  0
 19 24  1  0  0  0  0
 19  6  1  0  0  0  0
 20 19  2  0  0  0  0
 21 22  2  0  0  0  0
 21 20  1  0  0  0  0
 22 23  1  0  0  0  0
 23 29  1  0  0  0  0
 23 24  1  0  0  0  0
 24 25  2  0  0  0  0
 26  1  1  0  0  0  0
 27  5  1  0  0  0  0
M  END
