@<TRIPOS>MOLECULE
complex_45_pose1.pdb
72 76 1 0 0
SMALL
AMBER ff14SB


@<TRIPOS>ATOM
      1 C21        51.7230   57.5240   51.8310 C.3       1 LIG   -0.0458
      2 H24        52.2700   58.4360   52.0850 H         1 LIG    0.0777
      3 H25        51.4290   57.0000   52.7450 H         1 LIG    0.0777
      4 H26        50.8330   57.7700   51.2440 H         1 LIG    0.0777
      5 N5         52.6270   56.6200   51.0120 N.4       1 LIG    0.2441
      6 H23        52.0940   55.7640   50.7220 H         1 LIG    0.1996
      7 C22        53.8330   56.2200   51.8330 C.3       1 LIG   -0.0458
      8 H27        54.3800   57.1210   52.1220 H         1 LIG    0.0777
      9 H28        54.4820   55.5810   51.2310 H         1 LIG    0.0777
     10 H29        53.5090   55.6720   52.7230 H         1 LIG    0.0777
     11 C20        53.0940   57.2910   49.7340 C.3       1 LIG   -0.0104
     12 H21        53.6510   58.1950   50.0000 H         1 LIG    0.0839
     13 H22        53.7940   56.6020   49.2490 H         1 LIG    0.0839
     14 C19        51.9460   57.6170   48.7560 C.3       1 LIG    0.0921
     15 H19        51.3270   58.4200   49.1640 H         1 LIG    0.0629
     16 H20        52.3350   57.9350   47.7850 H         1 LIG    0.0629
     17 O2         51.1210   56.4320   48.6150 O.3       1 LIG   -0.3407
     18 C18        51.5400   55.3590   47.8530 C.ar      1 LIG    0.0752
     19 C23        51.5280   54.0810   48.3990 C.ar      1 LIG   -0.0311
     20 H30        51.1880   53.9180   49.4190 H         1 LIG    0.0651
     21 C24        51.9590   52.9910   47.6420 C.ar      1 LIG   -0.0505
     22 H31        51.9940   52.0270   48.1350 H         1 LIG    0.0631
     23 C17        51.9580   55.5410   46.5430 C.ar      1 LIG   -0.0311
     24 H18        51.9340   56.5260   46.0860 H         1 LIG    0.0651
     25 C16        52.3860   54.4480   45.7880 C.ar      1 LIG   -0.0505
     26 H17        52.7080   54.6330   44.7720 H         1 LIG    0.0631
     27 C13        52.3850   53.1480   46.3130 C.ar      1 LIG   -0.0034
     28 C12        52.9040   52.0530   45.4990 C.ar      1 LIG    0.0475
     29 C14        52.9270   50.6870   45.7550 C.ar      1 LIG    0.0179
     30 C11        53.7950   50.1360   44.7540 C.ar      1 LIG    0.0649
     31 C15        52.0850   49.9820   46.7010 C.ar      1 LIG   -0.0156
     32 C25        50.7290   50.3200   46.8220 C.ar      1 LIG   -0.0543
     33 H32        50.3150   51.1180   46.2120 H         1 LIG    0.0629
     34 C26        49.9020   49.6330   47.7030 C.ar      1 LIG   -0.0617
     35 H33        48.8520   49.9100   47.8010 H         1 LIG    0.0623
     36 C27        50.4090   48.5680   48.4470 C.ar      1 LIG   -0.0622
     37 H34        49.7540   48.0070   49.1100 H         1 LIG    0.0623
     38 C28        51.7480   48.2160   48.3270 C.ar      1 LIG   -0.0617
     39 H35        52.1390   47.3720   48.8920 H         1 LIG    0.0623
     40 C29        52.5860   48.9330   47.4700 C.ar      1 LIG   -0.0543
     41 H36        53.6370   48.6600   47.4040 H         1 LIG    0.0629
     42 N4         53.6660   52.2960   44.3620 N.ar      1 LIG   -0.2979
     43 H16        53.7220   53.1600   43.8390 H         1 LIG    0.1544
     44 C10        54.2250   51.1510   43.9490 C.ar      1 LIG    0.1349
     45 N3         55.0310   50.9640   42.8990 N.ar      1 LIG   -0.2206
     46 C9         55.4050   49.6810   42.6990 C.ar      1 LIG    0.1194
     47 H15        56.0770   49.4910   41.8660 H         1 LIG    0.1064
     48 N2         55.0000   48.6170   43.3990 N.ar      1 LIG   -0.2210
     49 C4         54.1560   48.8480   44.4070 C.ar      1 LIG    0.1306
     50 N1         53.6190   47.7560   44.9930 N.pl3     1 LIG   -0.3284
     51 H6         52.7090   47.9300   45.4200 H         1 LIG    0.1480
     52 C3         53.7380   46.4100   44.4160 C.3       1 LIG    0.0150
     53 H4         53.5640   46.4460   43.3380 H         1 LIG    0.0470
     54 H5         54.7570   46.0420   44.5680 H         1 LIG    0.0470
     55 C2         52.7410   45.3970   45.0340 C.3       1 LIG    0.0005
     56 H3         52.9510   44.4410   44.5550 H         1 LIG    0.0346
     57 C1         52.9120   45.1650   46.5420 C.3       1 LIG   -0.0464
     58 H1         53.0890   46.1060   47.0610 H         1 LIG    0.0271
     59 H2         53.7490   44.4950   46.7440 H         1 LIG    0.0271
     60 C8         51.5770   44.5610   47.0180 C.3       1 LIG   -0.0504
     61 H13        51.6910   43.5020   47.2620 H         1 LIG    0.0268
     62 H14        51.2230   45.0840   47.9090 H         1 LIG    0.0268
     63 C7         50.5630   44.7410   45.8720 C.3       1 LIG   -0.0264
     64 H11        50.3540   43.7740   45.4150 H         1 LIG    0.0293
     65 H12        49.6150   45.1180   46.2560 H         1 LIG    0.0293
     66 C5         51.2310   45.6670   44.8340 C.3       1 LIG    0.0614
     67 H7         50.9160   45.4210   43.8150 H         1 LIG    0.0607
     68 O1         50.9070   47.0560   45.1140 O.3       1 LIG   -0.3811
     69 C6         49.5180   47.4280   44.9190 C.3       1 LIG    0.0358
     70 H8         49.1670   47.0620   43.9510 H         1 LIG    0.0530
     71 H9         49.4380   48.5150   44.9480 H         1 LIG    0.0530
     72 H10        48.9010   47.0200   45.7200 H         1 LIG    0.0530
@<TRIPOS>BOND
     1   57   59 1
     2   57   60 1
     3   57   55 1
     4   57   58 1
     5   44   30 ar
     6   44   42 ar
     7   44   45 ar
     8   30   49 ar
     9   30   29 ar
    10   28   29 ar
    11   28   42 ar
    12   28   27 1
    13   27   21 ar
    14   27   25 ar
    15   29   31 1
    16   31   32 ar
    17   31   40 ar
    18   25   23 ar
    19   25   26 1
    20   23   24 1
    21   23   18 ar
    22   18   19 ar
    23   18   17 1
    24   14   11 1
    25   14   15 1
    26   14   16 1
    27   14   17 1
    28   55   66 1
    29   55   52 1
    30   55   56 1
    31   11   12 1
    32   11   13 1
    33   11    5 1
    34    1    3 1
    35    1    4 1
    36    1    5 1
    37    1    2 1
    38    7   10 1
    39    7    5 1
    40    7    8 1
    41    7    9 1
    42   19   21 ar
    43   19   20 1
    44   21   22 1
    45   32   33 1
    46   32   34 ar
    47   34   35 1
    48   34   36 ar
    49   36   37 1
    50   36   38 ar
    51   38   39 1
    52   38   40 ar
    53   40   41 1
    54   52   50 1
    55   52   53 1
    56   52   54 1
    57   49   50 1
    58   49   48 ar
    59   66   67 1
    60   66   68 1
    61   66   63 1
    62   69   68 1
    63   69   70 1
    64   69   71 1
    65   69   72 1
    66   63   60 1
    67   63   64 1
    68   63   65 1
    69   60   62 1
    70   60   61 1
    71   46   47 1
    72   46   48 ar
    73   46   45 ar
    74   43   42 1
    75    6    5 1
    76   51   50 1
@<TRIPOS>SUBSTRUCTURE
     1 LIG     1 RESIDUE           4 A     LIG     0 ROOT
