../datasets/input/ACK1/poses/ACK1_45/ligand.pdb
 OpenBabel02211915413D

 72 76  0  0  1  0  0  0  0  0999 V2000
   51.7230   57.5240   51.8310 C   0  0  0  0  0  0  0  0  0  0  0  0
   52.2700   58.4360   52.0850 H   0  0  0  0  0  0  0  0  0  0  0  0
   51.4290   57.0000   52.7450 H   0  0  0  0  0  0  0  0  0  0  0  0
   50.8330   57.7700   51.2440 H   0  0  0  0  0  0  0  0  0  0  0  0
   52.6270   56.6200   51.0120 N   0  3  0  0  0  0  0  0  0  0  0  0
   52.0940   55.7640   50.7220 H   0  0  0  0  0  0  0  0  0  0  0  0
   53.8330   56.2200   51.8330 C   0  0  0  0  0  0  0  0  0  0  0  0
   54.3800   57.1210   52.1220 H   0  0  0  0  0  0  0  0  0  0  0  0
   54.4820   55.5810   51.2310 H   0  0  0  0  0  0  0  0  0  0  0  0
   53.5090   55.6720   52.7230 H   0  0  0  0  0  0  0  0  0  0  0  0
   53.0940   57.2910   49.7340 C   0  0  0  0  0  0  0  0  0  0  0  0
   53.6510   58.1950   50.0000 H   0  0  0  0  0  0  0  0  0  0  0  0
   53.7940   56.6020   49.2490 H   0  0  0  0  0  0  0  0  0  0  0  0
   51.9460   57.6170   48.7560 C   0  0  0  0  0  0  0  0  0  0  0  0
   51.3270   58.4200   49.1640 H   0  0  0  0  0  0  0  0  0  0  0  0
   52.3350   57.9350   47.7850 H   0  0  0  0  0  0  0  0  0  0  0  0
   51.1210   56.4320   48.6150 O   0  0  0  0  0  0  0  0  0  0  0  0
   51.5400   55.3590   47.8530 C   0  0  0  0  0  0  0  0  0  0  0  0
   51.5280   54.0810   48.3990 C   0  0  0  0  0  0  0  0  0  0  0  0
   51.1880   53.9180   49.4190 H   0  0  0  0  0  0  0  0  0  0  0  0
   51.9590   52.9910   47.6420 C   0  0  0  0  0  0  0  0  0  0  0  0
   51.9940   52.0270   48.1350 H   0  0  0  0  0  0  0  0  0  0  0  0
   51.9580   55.5410   46.5430 C   0  0  0  0  0  0  0  0  0  0  0  0
   51.9340   56.5260   46.0860 H   0  0  0  0  0  0  0  0  0  0  0  0
   52.3860   54.4480   45.7880 C   0  0  0  0  0  0  0  0  0  0  0  0
   52.7080   54.6330   44.7720 H   0  0  0  0  0  0  0  0  0  0  0  0
   52.3850   53.1480   46.3130 C   0  0  0  0  0  0  0  0  0  0  0  0
   52.9040   52.0530   45.4990 C   0  0  2  0  0  0  0  0  0  0  0  0
   52.9270   50.6870   45.7550 C   0  0  2  0  0  0  0  0  0  0  0  0
   53.7950   50.1360   44.7540 C   0  0  0  0  0  0  0  0  0  0  0  0
   52.0850   49.9820   46.7010 C   0  0  0  0  0  0  0  0  0  0  0  0
   50.7290   50.3200   46.8220 C   0  0  0  0  0  0  0  0  0  0  0  0
   50.3150   51.1180   46.2120 H   0  0  0  0  0  0  0  0  0  0  0  0
   49.9020   49.6330   47.7030 C   0  0  0  0  0  0  0  0  0  0  0  0
   48.8520   49.9100   47.8010 H   0  0  0  0  0  0  0  0  0  0  0  0
   50.4090   48.5680   48.4470 C   0  0  0  0  0  0  0  0  0  0  0  0
   49.7540   48.0070   49.1100 H   0  0  0  0  0  0  0  0  0  0  0  0
   51.7480   48.2160   48.3270 C   0  0  0  0  0  0  0  0  0  0  0  0
   52.1390   47.3720   48.8920 H   0  0  0  0  0  0  0  0  0  0  0  0
   52.5860   48.9330   47.4700 C   0  0  0  0  0  0  0  0  0  0  0  0
   53.6370   48.6600   47.4040 H   0  0  0  0  0  0  0  0  0  0  0  0
   53.6660   52.2960   44.3620 N   0  3  0  0  0  0  0  0  0  0  0  0
   53.7220   53.1600   43.8390 H   0  0  0  0  0  0  0  0  0  0  0  0
   54.2250   51.1510   43.9490 C   0  0  0  0  0  0  0  0  0  0  0  0
   55.0310   50.9640   42.8990 N   0  0  0  0  0  0  0  0  0  0  0  0
   55.4050   49.6810   42.6990 C   0  0  0  0  0  0  0  0  0  0  0  0
   56.0770   49.4910   41.8660 H   0  0  0  0  0  0  0  0  0  0  0  0
   55.0000   48.6170   43.3990 N   0  0  0  0  0  0  0  0  0  0  0  0
   54.1560   48.8480   44.4070 C   0  0  0  0  0  0  0  0  0  0  0  0
   53.6190   47.7560   44.9930 N   0  0  0  0  0  0  0  0  0  0  0  0
   52.7090   47.9300   45.4200 H   0  0  0  0  0  0  0  0  0  0  0  0
   53.7380   46.4100   44.4160 C   0  0  0  0  0  0  0  0  0  0  0  0
   53.5640   46.4460   43.3380 H   0  0  0  0  0  0  0  0  0  0  0  0
   54.7570   46.0420   44.5680 H   0  0  0  0  0  0  0  0  0  0  0  0
   52.7410   45.3970   45.0340 C   0  0  1  0  0  0  0  0  0  0  0  0
   52.9510   44.4410   44.5550 H   0  0  0  0  0  0  0  0  0  0  0  0
   52.9120   45.1650   46.5420 C   0  0  0  0  0  0  0  0  0  0  0  0
   53.0890   46.1060   47.0610 H   0  0  0  0  0  0  0  0  0  0  0  0
   53.7490   44.4950   46.7440 H   0  0  0  0  0  0  0  0  0  0  0  0
   51.5770   44.5610   47.0180 C   0  0  0  0  0  0  0  0  0  0  0  0
   51.6910   43.5020   47.2620 H   0  0  0  0  0  0  0  0  0  0  0  0
   51.2230   45.0840   47.9090 H   0  0  0  0  0  0  0  0  0  0  0  0
   50.5630   44.7410   45.8720 C   0  0  0  0  0  0  0  0  0  0  0  0
   50.3540   43.7740   45.4150 H   0  0  0  0  0  0  0  0  0  0  0  0
   49.6150   45.1180   46.2560 H   0  0  0  0  0  0  0  0  0  0  0  0
   51.2310   45.6670   44.8340 C   0  0  1  0  0  0  0  0  0  0  0  0
   50.9160   45.4210   43.8150 H   0  0  0  0  0  0  0  0  0  0  0  0
   50.9070   47.0560   45.1140 O   0  0  0  0  0  0  0  0  0  0  0  0
   49.5180   47.4280   44.9190 C   0  0  0  0  0  0  0  0  0  0  0  0
   49.1670   47.0620   43.9510 H   0  0  0  0  0  0  0  0  0  0  0  0
   49.4380   48.5150   44.9480 H   0  0  0  0  0  0  0  0  0  0  0  0
   48.9010   47.0200   45.7200 H   0  0  0  0  0  0  0  0  0  0  0  0
  1  3  1  0  0  0  0
  1  4  1  0  0  0  0
  1  5  1  0  0  0  0
  1  2  1  0  0  0  0
  5 11  1  0  0  0  0
  5  7  1  0  0  0  0
  5  6  1  0  0  0  0
  7 10  1  0  0  0  0
  7  8  1  0  0  0  0
  7  9  1  0  0  0  0
 11 14  1  0  0  0  0
 11 12  1  0  0  0  0
 11 13  1  0  0  0  0
 14 15  1  0  0  0  0
 14 16  1  0  0  0  0
 14 17  1  0  0  0  0
 17 18  1  0  0  0  0
 18 23  2  0  0  0  0
 18 19  1  0  0  0  0
 19 21  2  0  0  0  0
 19 20  1  0  0  0  0
 21 27  1  0  0  0  0
 21 22  1  0  0  0  0
 23 25  1  0  0  0  0
 23 24  1  0  0  0  0
 25 27  2  0  0  0  0
 25 26  1  0  0  0  0
 28 27  1  1  0  0  0
 28 29  1  0  0  0  0
 28 42  1  0  0  0  0
 29 30  1  0  0  0  0
 29 31  1  6  0  0  0
 30 44  2  0  0  0  0
 30 49  1  0  0  0  0
 31 32  1  0  0  0  0
 31 40  2  0  0  0  0
 32 33  1  0  0  0  0
 32 34  2  0  0  0  0
 34 35  1  0  0  0  0
 34 36  1  0  0  0  0
 36 37  1  0  0  0  0
 36 38  2  0  0  0  0
 38 39  1  0  0  0  0
 38 40  1  0  0  0  0
 40 41  1  0  0  0  0
 42 44  1  0  0  0  0
 42 43  1  0  0  0  0
 44 45  1  0  0  0  0
 45 46  2  0  0  0  0
 46 47  1  0  0  0  0
 46 48  1  0  0  0  0
 48 49  2  0  0  0  0
 49 50  1  0  0  0  0
 50 52  1  0  0  0  0
 50 51  1  0  0  0  0
 52 55  1  0  0  0  0
 52 53  1  0  0  0  0
 52 54  1  0  0  0  0
 55 57  1  0  0  0  0
 55 66  1  6  0  0  0
 55 56  1  0  0  0  0
 57 59  1  0  0  0  0
 57 60  1  0  0  0  0
 57 58  1  0  0  0  0
 60 63  1  0  0  0  0
 60 62  1  0  0  0  0
 60 61  1  0  0  0  0
 63 66  1  0  0  0  0
 63 64  1  0  0  0  0
 63 65  1  0  0  0  0
 66 67  1  6  0  0  0
 66 68  1  0  0  0  0
 68 69  1  0  0  0  0
 69 70  1  0  0  0  0
 69 71  1  0  0  0  0
 69 72  1  0  0  0  0
M  CHG  2   5   1  42   1
M  END
