../datasets/input/FXR_2/poses/FXR12/ligand.pdb
 OpenBabel03111910173D

 57 61  0  0  0  0  0  0  0  0999 V2000
   40.6720   14.5610    1.6490 N   0  0  0  0  0  0  0  0  0  0  0  0
   44.4050   11.5810    3.1150 N   0  0  0  0  0  0  0  0  0  0  0  0
   35.8350   18.5600   -0.7260 C   0  0  0  0  0  0  0  0  0  0  0  0
   36.7590   17.7010    0.0830 C   0  0  0  0  0  0  0  0  0  0  0  0
   38.1480   17.9170    0.0710 C   0  0  0  0  0  0  0  0  0  0  0  0
   39.0090   17.0860    0.8190 C   0  0  0  0  0  0  0  0  0  0  0  0
   38.4940   15.9580    1.4920 C   0  0  0  0  0  0  0  0  0  0  0  0
   39.3850   14.9740    2.2330 C   0  0  0  0  0  0  0  0  0  0  0  0
   41.6100   13.9590    2.4030 C   0  0  0  0  0  0  0  0  0  0  0  0
   42.7710   13.4230    1.5360 C   0  0  0  0  0  0  0  0  0  0  0  0
   42.6870   11.8960    1.3890 C   0  0  0  0  0  0  0  0  0  0  0  0
   43.0700   11.1700    2.6690 C   0  0  0  0  0  0  0  0  0  0  0  0
   44.6080   13.0360    3.3000 C   0  0  0  0  0  0  0  0  0  0  0  0
   44.1770   13.8210    2.0400 C   0  0  0  0  0  0  0  0  0  0  0  0
   44.1360    9.9840    5.3390 C   0  0  0  0  0  0  0  0  0  0  0  0
   43.6040   11.0590    6.0840 C   0  0  0  0  0  0  0  0  0  0  0  0
   42.6400   10.8400    7.0870 C   0  0  0  0  0  0  0  0  0  0  0  0
   42.1940    9.5360    7.3550 C   0  0  0  0  0  0  0  0  0  0  0  0
   42.7190    8.4620    6.6190 C   0  0  0  0  0  0  0  0  0  0  0  0
   43.6790    8.6660    5.6090 C   0  0  0  0  0  0  0  0  0  0  0  0
   42.3840   14.0460    0.2230 C   0  0  0  0  0  0  0  0  0  0  0  0
   43.1020   13.9880   -0.9840 C   0  0  0  0  0  0  0  0  0  0  0  0
   42.4850   14.4810   -2.1480 C   0  0  0  0  0  0  0  0  0  0  0  0
   41.1690   14.9830   -2.0920 C   0  0  0  0  0  0  0  0  0  0  0  0
   40.4570   15.0210   -0.8760 C   0  0  0  0  0  0  0  0  0  0  0  0
   41.1060   14.5920    0.2980 C   0  0  0  0  0  0  0  0  0  0  0  0
   37.1030   15.7380    1.5000 C   0  0  0  0  0  0  0  0  0  0  0  0
   36.2460   16.6190    0.8240 C   0  0  0  0  0  0  0  0  0  0  0  0
   34.6150   18.3100   -0.7400 O   0  5  0  0  0  0  0  0  0  0  0  0
   36.2800   19.4160   -1.5200 O   0  0  0  0  0  0  0  0  0  0  0  0
   41.5860   13.8530    3.6330 O   0  0  0  0  0  0  0  0  0  0  0  0
   45.5270    9.2850    3.1150 O   0  0  0  0  0  0  0  0  0  0  0  0
   46.4600   11.1210    4.5970 O   0  0  0  0  0  0  0  0  0  0  0  0
   44.2250    7.2540    4.7790 Cl  0  0  0  0  0  0  0  0  0  0  0  0
   43.4170   14.4430   -3.8020 Br  0  0  0  0  0  0  0  0  0  0  0  0
   45.3070   10.4170    4.0240 S   0  0  0  0  0  0  0  0  0  0  0  0
   38.5390   18.7230   -0.5300 H   0  0  0  0  0  0  0  0  0  0  0  0
   40.0730   17.2590    0.8060 H   0  0  0  0  0  0  0  0  0  0  0  0
   39.5670   15.4140    3.2160 H   0  0  0  0  0  0  0  0  0  0  0  0
   38.8180   14.0630    2.4220 H   0  0  0  0  0  0  0  0  0  0  0  0
   43.3320   11.5590    0.5780 H   0  0  0  0  0  0  0  0  0  0  0  0
   41.6720   11.6080    1.1140 H   0  0  0  0  0  0  0  0  0  0  0  0
   42.3430   11.3560    3.4620 H   0  0  0  0  0  0  0  0  0  0  0  0
   43.0550   10.0980    2.5010 H   0  0  0  0  0  0  0  0  0  0  0  0
   45.6590   13.2380    3.5070 H   0  0  0  0  0  0  0  0  0  0  0  0
   44.0500   13.3800    4.1690 H   0  0  0  0  0  0  0  0  0  0  0  0
   44.2200   14.8920    2.2370 H   0  0  0  0  0  0  0  0  0  0  0  0
   44.9060   13.6280    1.2530 H   0  0  0  0  0  0  0  0  0  0  0  0
   43.9560   12.0590    5.8930 H   0  0  0  0  0  0  0  0  0  0  0  0
   42.2450   11.6680    7.6560 H   0  0  0  0  0  0  0  0  0  0  0  0
   41.4600    9.3580    8.1280 H   0  0  0  0  0  0  0  0  0  0  0  0
   42.3810    7.4630    6.8280 H   0  0  0  0  0  0  0  0  0  0  0  0
   44.0880   13.5560   -1.0220 H   0  0  0  0  0  0  0  0  0  0  0  0
   40.6950   15.3420   -2.9870 H   0  0  0  0  0  0  0  0  0  0  0  0
   39.4330   15.3560   -0.8840 H   0  0  0  0  0  0  0  0  0  0  0  0
   36.6790   14.8860    2.0060 H   0  0  0  0  0  0  0  0  0  0  0  0
   35.1870   16.4350    0.8330 H   0  0  0  0  0  0  0  0  0  0  0  0
  1  8  1  0  0  0  0
  1  9  1  0  0  0  0
  1 26  1  0  0  0  0
  2 12  1  0  0  0  0
  2 13  1  0  0  0  0
  2 36  1  0  0  0  0
  3  4  1  0  0  0  0
  3 29  1  0  0  0  0
  3 30  2  0  0  0  0
  4  5  1  0  0  0  0
  4 28  2  0  0  0  0
  5  6  2  0  0  0  0
  5 37  1  0  0  0  0
  6  7  1  0  0  0  0
  6 38  1  0  0  0  0
  7  8  1  0  0  0  0
  7 27  2  0  0  0  0
  8 39  1  0  0  0  0
  8 40  1  0  0  0  0
  9 10  1  0  0  0  0
  9 31  2  0  0  0  0
 10 11  1  0  0  0  0
 10 14  1  0  0  0  0
 10 21  1  0  0  0  0
 11 12  1  0  0  0  0
 11 41  1  0  0  0  0
 11 42  1  0  0  0  0
 12 43  1  0  0  0  0
 12 44  1  0  0  0  0
 13 14  1  0  0  0  0
 13 45  1  0  0  0  0
 13 46  1  0  0  0  0
 14 47  1  0  0  0  0
 14 48  1  0  0  0  0
 15 16  1  0  0  0  0
 15 20  2  0  0  0  0
 15 36  1  0  0  0  0
 16 17  2  0  0  0  0
 16 49  1  0  0  0  0
 17 18  1  0  0  0  0
 17 50  1  0  0  0  0
 18 19  2  0  0  0  0
 18 51  1  0  0  0  0
 19 20  1  0  0  0  0
 19 52  1  0  0  0  0
 20 34  1  0  0  0  0
 21 22  1  0  0  0  0
 21 26  2  0  0  0  0
 22 23  2  0  0  0  0
 22 53  1  0  0  0  0
 23 24  1  0  0  0  0
 23 35  1  0  0  0  0
 24 25  2  0  0  0  0
 24 54  1  0  0  0  0
 25 26  1  0  0  0  0
 25 55  1  0  0  0  0
 27 28  1  0  0  0  0
 27 56  1  0  0  0  0
 28 57  1  0  0  0  0
 32 36  2  0  0  0  0
 33 36  2  0  0  0  0
M  CHG  1  29  -1
M  END
$$$$
