../datasets/input/THROMBIN/poses/3A/ligand.pdb
 OpenBabel03111910183D

 36 37  0  0  1  0  0  0  0  0999 V2000
   38.4070   20.8820   39.7720 C   0  0  0  0  0  0  0  0  0  0  0  0
   38.8410   22.8060   38.2680 N   0  0  0  0  0  0  0  0  0  0  0  0
   37.0840   22.8070   39.5900 O   0  0  0  0  0  0  0  0  0  0  0  0
   38.0480   22.2460   39.1920 C   0  0  0  0  0  0  0  0  0  0  0  0
   36.5370   25.3490   37.4030 N   0  0  0  0  0  0  0  0  0  0  0  0
   36.7780   23.3660   36.3670 O   0  0  0  0  0  0  0  0  0  0  0  0
   38.6840   24.1130   37.7140 C   0  0  2  0  0  0  0  0  0  0  0  0
   37.2570   24.2200   37.0880 C   0  0  0  0  0  0  0  0  0  0  0  0
   39.7480   24.1820   36.6490 C   0  0  0  0  0  0  0  0  0  0  0  0
   40.7870   23.1290   37.0540 C   0  0  0  0  0  0  0  0  0  0  0  0
   39.9850   22.0720   37.6900 C   0  0  0  0  0  0  0  0  0  0  0  0
   35.1740   25.6390   36.9130 C   0  0  0  0  0  0  0  0  0  0  0  0
   34.1810   25.5890   38.0860 C   0  0  0  0  0  0  0  0  0  0  0  0
   33.2020   24.5600   38.1770 C   0  0  0  0  0  0  0  0  0  0  0  0
   32.3970   24.5800   39.3410 C   0  0  0  0  0  0  0  0  0  0  0  0
   32.3770   25.5970   40.2310 C   0  0  0  0  0  0  0  0  0  0  0  0
   33.2460   26.6770   40.0500 C   0  0  0  0  0  0  0  0  0  0  0  0
   34.2030   26.6000   38.9970 C   0  0  0  0  0  0  0  0  0  0  0  0
   33.1310   27.9030   41.1790 C   0  0  0  0  0  0  0  0  0  0  0  0
   39.0750   20.3370   39.1010 H   0  0  0  0  0  0  0  0  0  0  0  0
   38.9290   24.7930   38.5330 H   0  0  0  0  0  0  0  0  0  0  0  0
   39.2950   24.0400   35.6650 H   0  0  0  0  0  0  0  0  0  0  0  0
   40.1990   25.1680   36.7770 H   0  0  0  0  0  0  0  0  0  0  0  0
   41.3140   22.9240   36.1200 H   0  0  0  0  0  0  0  0  0  0  0  0
   41.5320   23.5480   37.7330 H   0  0  0  0  0  0  0  0  0  0  0  0
   40.6060   21.5250   38.4040 H   0  0  0  0  0  0  0  0  0  0  0  0
   38.9220   20.8900   40.7330 H   0  0  0  0  0  0  0  0  0  0  0  0
   39.6230   21.4520   36.8670 H   0  0  0  0  0  0  0  0  0  0  0  0
   36.9550   26.0770   37.9620 H   0  0  0  0  0  0  0  0  0  0  0  0
   35.1510   26.6000   36.3930 H   0  0  0  0  0  0  0  0  0  0  0  0
   34.8160   24.9590   36.1360 H   0  0  0  0  0  0  0  0  0  0  0  0
   33.1610   23.7480   37.4560 H   0  0  0  0  0  0  0  0  0  0  0  0
   31.5450   23.9060   39.3770 H   0  0  0  0  0  0  0  0  0  0  0  0
   31.5660   25.6150   40.9540 H   0  0  0  0  0  0  0  0  0  0  0  0
   34.9600   27.3760   38.9310 H   0  0  0  0  0  0  0  0  0  0  0  0
   37.4080   20.4410   39.7600 H   0  0  0  0  0  0  0  0  0  0  0  0
  1  4  1  0  0  0  0
  1 20  1  0  0  0  0
  1 27  1  0  0  0  0
  1 36  1  0  0  0  0
  2  4  1  0  0  0  0
  2  7  1  0  0  0  0
  2 11  1  0  0  0  0
  3  4  2  0  0  0  0
  5  8  1  0  0  0  0
  5 12  1  0  0  0  0
  5 29  1  0  0  0  0
  6  8  2  0  0  0  0
  7  8  1  0  0  0  0
  7  9  1  0  0  0  0
  7 21  1  1  0  0  0
  9 10  1  0  0  0  0
  9 22  1  0  0  0  0
  9 23  1  0  0  0  0
 10 11  1  0  0  0  0
 10 24  1  0  0  0  0
 10 25  1  0  0  0  0
 11 26  1  0  0  0  0
 11 28  1  0  0  0  0
 12 13  1  0  0  0  0
 12 30  1  0  0  0  0
 12 31  1  0  0  0  0
 13 14  2  0  0  0  0
 13 18  1  0  0  0  0
 14 15  1  0  0  0  0
 14 32  1  0  0  0  0
 15 16  2  0  0  0  0
 15 33  1  0  0  0  0
 16 17  1  0  0  0  0
 16 34  1  0  0  0  0
 17 18  2  0  0  0  0
 17 19  1  0  0  0  0
 18 35  1  0  0  0  0
M  END
$$$$
