../datasets/input/THROMBIN/poses/5F/ligand.pdb
 OpenBabel02221916063D

 51 52  0  0  1  0  0  0  0  0999 V2000
   37.8620   21.0800   39.9480 C   0  0  1  0  0  0  0  0  0  0  0  0
   37.7060   22.4460   39.3310 C   0  0  0  0  0  0  0  0  0  0  0  0
   36.6590   22.9780   39.5130 O   0  0  0  0  0  0  0  0  0  0  0  0
   38.2320   21.1470   41.4350 C   0  0  0  0  0  0  0  0  0  0  0  0
   38.7030   22.9090   38.5700 N   0  0  0  0  0  0  0  0  0  0  0  0
   38.4920   24.0930   37.6640 C   0  0  2  0  0  0  0  0  0  0  0  0
   37.1180   24.3560   37.1300 C   0  0  0  0  0  0  0  0  0  0  0  0
   36.3920   23.4610   36.7060 O   0  0  0  0  0  0  0  0  0  0  0  0
   39.6690   23.9750   36.6140 C   0  0  0  0  0  0  0  0  0  0  0  0
   40.6690   22.9790   37.1860 C   0  0  0  0  0  0  0  0  0  0  0  0
   39.8780   22.0930   38.1700 C   0  0  0  0  0  0  0  0  0  0  0  0
   36.5640   25.5760   37.2310 N   0  0  0  0  0  0  0  0  0  0  0  0
   35.1930   25.9560   36.8190 C   0  0  0  0  0  0  0  0  0  0  0  0
   34.3530   25.7990   38.0480 C   0  0  0  0  0  0  0  0  0  0  0  0
   33.3870   24.8390   38.1260 C   0  0  0  0  0  0  0  0  0  0  0  0
   32.5810   24.7320   39.2360 C   0  0  0  0  0  0  0  0  0  0  0  0
   32.6050   25.7190   40.2190 C   0  0  0  0  0  0  0  0  0  0  0  0
   33.5000   26.7500   40.1970 C   0  0  0  0  0  0  0  0  0  0  0  0
   34.3990   26.7630   39.0990 C   0  0  0  0  0  0  0  0  0  0  0  0
   33.4090   28.0060   41.2990 C   0  0  0  0  0  0  0  0  0  0  0  0
   38.7880   19.8140   41.9870 C   0  0  0  0  0  0  0  0  0  0  0  0
   38.0590   18.5870   41.6430 C   0  0  0  0  0  0  0  0  0  0  0  0
   40.2890   19.6550   41.6580 C   0  0  0  0  0  0  0  0  0  0  0  0
   36.5250   20.3850   39.7450 N   0  0  0  0  0  0  0  0  0  0  0  0
   38.8090   24.9290   38.2930 H   0  0  0  0  0  0  0  0  0  0  0  0
   39.2730   23.5500   35.6900 H   0  0  0  0  0  0  0  0  0  0  0  0
   40.2140   24.9170   36.5120 H   0  0  0  0  0  0  0  0  0  0  0  0
   41.0950   22.3960   36.3680 H   0  0  0  0  0  0  0  0  0  0  0  0
   41.5080   23.4950   37.6580 H   0  0  0  0  0  0  0  0  0  0  0  0
   40.4560   21.8320   39.0600 H   0  0  0  0  0  0  0  0  0  0  0  0
   39.5720   21.1710   37.6690 H   0  0  0  0  0  0  0  0  0  0  0  0
   37.1480   26.3280   37.5620 H   0  0  0  0  0  0  0  0  0  0  0  0
   35.2290   27.0110   36.5340 H   0  0  0  0  0  0  0  0  0  0  0  0
   34.8940   25.3550   35.9560 H   0  0  0  0  0  0  0  0  0  0  0  0
   33.3010   24.0960   37.3360 H   0  0  0  0  0  0  0  0  0  0  0  0
   31.8680   23.9120   39.2610 H   0  0  0  0  0  0  0  0  0  0  0  0
   31.7420   25.7380   40.8800 H   0  0  0  0  0  0  0  0  0  0  0  0
   35.1000   27.5870   38.9900 H   0  0  0  0  0  0  0  0  0  0  0  0
   38.8340   19.8440   43.0770 H   0  0  0  0  0  0  0  0  0  0  0  0
   38.1080   18.4000   40.5680 H   0  0  0  0  0  0  0  0  0  0  0  0
   38.3600   17.7280   42.2460 H   0  0  0  0  0  0  0  0  0  0  0  0
   37.0430   18.7010   42.0250 H   0  0  0  0  0  0  0  0  0  0  0  0
   40.9360   20.4380   42.0590 H   0  0  0  0  0  0  0  0  0  0  0  0
   40.5830   18.6980   42.0940 H   0  0  0  0  0  0  0  0  0  0  0  0
   40.5020   19.6610   40.5870 H   0  0  0  0  0  0  0  0  0  0  0  0
   39.0250   21.8870   41.5680 H   0  0  0  0  0  0  0  0  0  0  0  0
   37.3860   21.5810   41.9720 H   0  0  0  0  0  0  0  0  0  0  0  0
   38.6210   20.5270   39.3920 H   0  0  0  0  0  0  0  0  0  0  0  0
   36.3540   19.4090   40.0350 H   0  0  0  0  0  0  0  0  0  0  0  0
   36.2710   20.3660   38.7440 H   0  0  0  0  0  0  0  0  0  0  0  0
   35.8430   21.0610   40.1280 H   0  0  0  0  0  0  0  0  0  0  0  0
  1  2  1  0  0  0  0
  1 48  1  6  0  0  0
  1 24  1  0  0  0  0
  1  4  1  0  0  0  0
  2  5  1  0  0  0  0
  2  3  2  0  0  0  0
  4 46  1  0  0  0  0
  4 47  1  0  0  0  0
  4 21  1  0  0  0  0
  5  6  1  0  0  0  0
  5 11  1  0  0  0  0
  6  9  1  0  0  0  0
  6  7  1  0  0  0  0
  6 25  1  1  0  0  0
  7  8  2  0  0  0  0
  7 12  1  0  0  0  0
  9 26  1  0  0  0  0
  9 27  1  0  0  0  0
  9 10  1  0  0  0  0
 10 28  1  0  0  0  0
 10 29  1  0  0  0  0
 10 11  1  0  0  0  0
 11 31  1  0  0  0  0
 11 30  1  0  0  0  0
 12 13  1  0  0  0  0
 12 32  1  0  0  0  0
 13 34  1  0  0  0  0
 13 33  1  0  0  0  0
 13 14  1  0  0  0  0
 14 15  2  0  0  0  0
 14 19  1  0  0  0  0
 15 35  1  0  0  0  0
 15 16  1  0  0  0  0
 16 36  1  0  0  0  0
 16 17  2  0  0  0  0
 17 18  1  0  0  0  0
 17 37  1  0  0  0  0
 18 19  2  0  0  0  0
 18 20  1  0  0  0  0
 19 38  1  0  0  0  0
 21 22  1  0  0  0  0
 21 23  1  0  0  0  0
 21 39  1  0  0  0  0
 22 40  1  0  0  0  0
 22 42  1  0  0  0  0
 22 41  1  0  0  0  0
 23 45  1  0  0  0  0
 23 43  1  0  0  0  0
 23 44  1  0  0  0  0
 24 50  1  0  0  0  0
 24 49  1  0  0  0  0
 24 51  1  0  0  0  0
M  END
