@<TRIPOS>MOLECULE
ligand3_5.pdb
49 53 1 0 0
SMALL
AMBER ff14SB


@<TRIPOS>ATOM
      1 C19        52.2660   48.6660   48.1950 C.ar      1 LIG   -0.1320
      2 H14        52.7500   47.9080   48.8100 H         1 LIG    0.1355
      3 C20        53.0270   49.4640   47.3460 C.ar      1 LIG   -0.1145
      4 H15        54.1070   49.3470   47.3300 H         1 LIG    0.1435
      5 C18        50.8830   48.8210   48.2420 C.ar      1 LIG   -0.1320
      6 H13        50.2850   48.1960   48.9020 H         1 LIG    0.1330
      7 C17        50.2650   49.7740   47.4370 C.ar      1 LIG   -0.1320
      8 H12        49.1850   49.9030   47.4850 H         1 LIG    0.1355
      9 C16        51.0260   50.5520   46.5670 C.ar      1 LIG   -0.1145
     10 H11        50.5320   51.2770   45.9240 H         1 LIG    0.1435
     11 C3         52.4150   50.3960   46.5050 C.ar      1 LIG   -0.0448
     12 C2         53.2050   51.1710   45.5700 C.ar      1 LIG   -0.0002
     13 C1         54.0710   50.5950   44.5580 C.ar      1 LIG   -0.3376
     14 C6         54.3950   49.2790   44.2490 C.ar      1 LIG    0.7312
     15 N1         53.8980   48.2060   44.9050 N.pl3     1 LIG   -0.8389
     16 H1         53.2040   48.3720   45.6240 H         1 LIG    0.4478
     17 C7         54.1460   46.8060   44.5110 C.3       1 LIG    0.2008
     18 C8         53.1490   45.8190   45.1660 C.3       1 LIG    0.1281
     19 H2         53.4540   44.7890   44.9520 H         1 LIG    0.0577
     20 O1         53.1080   45.9930   46.5990 O.3       1 LIG   -0.4296
     21 C23        51.9010   45.3600   47.0820 C.3       1 LIG    0.1214
     22 C22        50.8630   45.6230   45.9820 C.3       1 LIG   -0.1074
     23 C21        51.6810   46.0130   44.7430 C.3       1 LIG   -0.1054
     24 H16        51.4820   47.0510   44.4810 H         1 LIG    0.0612
     25 H21        51.4230   45.3870   43.8890 H         1 LIG    0.0612
     26 H17        50.2640   44.7270   45.8020 H         1 LIG    0.0537
     27 H18        50.1920   46.4360   46.2720 H         1 LIG    0.0537
     28 H19        52.0800   44.2850   47.1840 H         1 LIG    0.0497
     29 H20        51.5940   45.7880   48.0380 H         1 LIG    0.0497
     30 H3         55.1610   46.5250   44.8030 H         1 LIG    0.0627
     31 H4         54.0700   46.7040   43.4250 H         1 LIG    0.0627
     32 N2         55.1850   48.9710   43.2190 N.ar      1 LIG   -0.7860
     33 C9         55.6050   49.9820   42.4510 C.ar      1 LIG    0.6779
     34 H5         56.2240   49.7230   41.5990 H         1 LIG    0.0511
     35 N3         55.3060   51.2820   42.6240 N.ar      1 LIG   -0.7080
     36 C10        54.5540   51.5420   43.7030 C.ar      1 LIG    0.4217
     37 S1         54.0560   53.1710   44.0700 S.2       1 LIG    0.2676
     38 C4         53.0920   52.5580   45.4050 C.ar      1 LIG   -0.3032
     39 C5         52.4080   53.5050   46.2890 C.ar      1 LIG   -0.0308
     40 C11        52.2070   54.8190   45.8290 C.ar      1 LIG   -0.1130
     41 H6         52.4800   55.1050   44.8180 H         1 LIG    0.1395
     42 C12        51.6080   55.7900   46.6280 C.ar      1 LIG   -0.1305
     43 H7         51.4470   56.7930   46.2360 H         1 LIG    0.1335
     44 C13        51.2020   55.4760   47.9190 C.ar      1 LIG   -0.1240
     45 H8         50.7360   56.2300   48.5500 H         1 LIG    0.1330
     46 C14        51.4050   54.1900   48.4040 C.ar      1 LIG   -0.1305
     47 H9         51.1090   53.9350   49.4210 H         1 LIG    0.1335
     48 C15        52.0070   53.2210   47.6030 C.ar      1 LIG   -0.1130
     49 H10        52.1900   52.2580   48.0610 H         1 LIG    0.1395
@<TRIPOS>BOND
     1    1    2 1
     2    1    3 ar
     3    1    5 ar
     4    3    4 1
     5    3   11 ar
     6    5    6 1
     7    5    7 ar
     8    7    8 1
     9    7    9 ar
    10    9   10 1
    11    9   11 ar
    12   11   12 1
    13   12   13 ar
    14   12   38 ar
    15   13   14 ar
    16   13   36 ar
    17   14   15 1
    18   14   32 ar
    19   15   16 1
    20   15   17 1
    21   17   18 1
    22   17   30 1
    23   17   31 1
    24   18   19 1
    25   18   20 1
    26   18   23 1
    27   20   21 1
    28   21   22 1
    29   21   28 1
    30   21   29 1
    31   22   23 1
    32   22   26 1
    33   22   27 1
    34   23   24 1
    35   23   25 1
    36   32   33 ar
    37   33   34 1
    38   33   35 ar
    39   35   36 ar
    40   36   37 ar
    41   37   38 ar
    42   38   39 1
    43   39   40 ar
    44   39   48 ar
    45   40   41 1
    46   40   42 ar
    47   42   43 1
    48   42   44 ar
    49   44   45 1
    50   44   46 ar
    51   46   47 1
    52   46   48 ar
    53   48   49 1
@<TRIPOS>SUBSTRUCTURE
     1 LIG     1 RESIDUE           4 A     LIG     0 ROOT
