../datasets/input/ACK1/poses/ACK1_3/ligand.pdb
 OpenBabel02211915413D

 49 53  0  0  1  0  0  0  0  0999 V2000
   52.2660   48.6660   48.1950 C   0  0  0  0  0  0  0  0  0  0  0  0
   52.7500   47.9080   48.8100 H   0  0  0  0  0  0  0  0  0  0  0  0
   53.0270   49.4640   47.3460 C   0  0  0  0  0  0  0  0  0  0  0  0
   54.1070   49.3470   47.3300 H   0  0  0  0  0  0  0  0  0  0  0  0
   50.8830   48.8210   48.2420 C   0  0  0  0  0  0  0  0  0  0  0  0
   50.2850   48.1960   48.9020 H   0  0  0  0  0  0  0  0  0  0  0  0
   50.2650   49.7740   47.4370 C   0  0  0  0  0  0  0  0  0  0  0  0
   49.1850   49.9030   47.4850 H   0  0  0  0  0  0  0  0  0  0  0  0
   51.0260   50.5520   46.5670 C   0  0  0  0  0  0  0  0  0  0  0  0
   50.5320   51.2770   45.9240 H   0  0  0  0  0  0  0  0  0  0  0  0
   52.4150   50.3960   46.5050 C   0  0  0  0  0  0  0  0  0  0  0  0
   53.2050   51.1710   45.5700 C   0  0  0  0  0  0  0  0  0  0  0  0
   54.0710   50.5950   44.5580 C   0  0  0  0  0  0  0  0  0  0  0  0
   54.3950   49.2790   44.2490 C   0  0  1  0  0  0  0  0  0  0  0  0
   53.8980   48.2060   44.9050 N   0  0  0  0  0  0  0  0  0  0  0  0
   53.2040   48.3720   45.6240 H   0  0  0  0  0  0  0  0  0  0  0  0
   54.1460   46.8060   44.5110 C   0  0  0  0  0  0  0  0  0  0  0  0
   53.1490   45.8190   45.1660 C   0  0  1  0  0  0  0  0  0  0  0  0
   53.4540   44.7890   44.9520 H   0  0  0  0  0  0  0  0  0  0  0  0
   53.1080   45.9930   46.5990 O   0  0  0  0  0  0  0  0  0  0  0  0
   51.9010   45.3600   47.0820 C   0  0  0  0  0  0  0  0  0  0  0  0
   50.8630   45.6230   45.9820 C   0  0  0  0  0  0  0  0  0  0  0  0
   51.6810   46.0130   44.7430 C   0  0  0  0  0  0  0  0  0  0  0  0
   51.4820   47.0510   44.4810 H   0  0  0  0  0  0  0  0  0  0  0  0
   51.4230   45.3870   43.8890 H   0  0  0  0  0  0  0  0  0  0  0  0
   50.2640   44.7270   45.8020 H   0  0  0  0  0  0  0  0  0  0  0  0
   50.1920   46.4360   46.2720 H   0  0  0  0  0  0  0  0  0  0  0  0
   52.0800   44.2850   47.1840 H   0  0  0  0  0  0  0  0  0  0  0  0
   51.5940   45.7880   48.0380 H   0  0  0  0  0  0  0  0  0  0  0  0
   55.1610   46.5250   44.8030 H   0  0  0  0  0  0  0  0  0  0  0  0
   54.0700   46.7040   43.4250 H   0  0  0  0  0  0  0  0  0  0  0  0
   55.1850   48.9710   43.2190 N   0  0  0  0  0  0  0  0  0  0  0  0
   55.6050   49.9820   42.4510 C   0  0  0  0  0  0  0  0  0  0  0  0
   56.2240   49.7230   41.5990 H   0  0  0  0  0  0  0  0  0  0  0  0
   55.3060   51.2820   42.6240 N   0  0  0  0  0  0  0  0  0  0  0  0
   54.5540   51.5420   43.7030 C   0  0  0  0  0  0  0  0  0  0  0  0
   54.0560   53.1710   44.0700 S   0  0  0  0  0  0  0  0  0  0  0  0
   53.0920   52.5580   45.4050 C   0  0  0  0  0  0  0  0  0  0  0  0
   52.4080   53.5050   46.2890 C   0  0  0  0  0  0  0  0  0  0  0  0
   52.2070   54.8190   45.8290 C   0  0  0  0  0  0  0  0  0  0  0  0
   52.4800   55.1050   44.8180 H   0  0  0  0  0  0  0  0  0  0  0  0
   51.6080   55.7900   46.6280 C   0  0  0  0  0  0  0  0  0  0  0  0
   51.4470   56.7930   46.2360 H   0  0  0  0  0  0  0  0  0  0  0  0
   51.2020   55.4760   47.9190 C   0  0  0  0  0  0  0  0  0  0  0  0
   50.7360   56.2300   48.5500 H   0  0  0  0  0  0  0  0  0  0  0  0
   51.4050   54.1900   48.4040 C   0  0  0  0  0  0  0  0  0  0  0  0
   51.1090   53.9350   49.4210 H   0  0  0  0  0  0  0  0  0  0  0  0
   52.0070   53.2210   47.6030 C   0  0  0  0  0  0  0  0  0  0  0  0
   52.1900   52.2580   48.0610 H   0  0  0  0  0  0  0  0  0  0  0  0
  1  2  1  0  0  0  0
  1  3  2  0  0  0  0
  1  5  1  0  0  0  0
  3  4  1  0  0  0  0
  3 11  1  0  0  0  0
  5  6  1  0  0  0  0
  5  7  2  0  0  0  0
  7  8  1  0  0  0  0
  7  9  1  0  0  0  0
  9 10  1  0  0  0  0
  9 11  2  0  0  0  0
 11 12  1  0  0  0  0
 12 13  1  0  0  0  0
 12 38  2  0  0  0  0
 13 14  1  0  0  0  0
 13 36  2  0  0  0  0
 14 15  1  6  0  0  0
 14 32  1  0  0  0  0
 15 16  1  0  0  0  0
 15 17  1  0  0  0  0
 17 18  1  0  0  0  0
 17 30  1  0  0  0  0
 17 31  1  0  0  0  0
 18 19  1  6  0  0  0
 18 20  1  0  0  0  0
 18 23  1  0  0  0  0
 20 21  1  0  0  0  0
 21 22  1  0  0  0  0
 21 28  1  0  0  0  0
 21 29  1  0  0  0  0
 22 23  1  0  0  0  0
 22 26  1  0  0  0  0
 22 27  1  0  0  0  0
 23 24  1  0  0  0  0
 23 25  1  0  0  0  0
 32 33  2  0  0  0  0
 33 34  1  0  0  0  0
 33 35  1  0  0  0  0
 35 36  1  0  0  0  0
 36 37  1  0  0  0  0
 37 38  1  0  0  0  0
 38 39  1  0  0  0  0
 39 40  2  0  0  0  0
 39 48  1  0  0  0  0
 40 41  1  0  0  0  0
 40 42  1  0  0  0  0
 42 43  1  0  0  0  0
 42 44  2  0  0  0  0
 44 45  1  0  0  0  0
 44 46  1  0  0  0  0
 46 47  1  0  0  0  0
 46 48  2  0  0  0  0
 48 49  1  0  0  0  0
M  END
