@<TRIPOS>MOLECULE
ligand44_pose1.pdb
69 73 1 0 0
SMALL
AMBER ff14SB


@<TRIPOS>ATOM
      1 C20        53.2990   55.8710   50.6330 C.3       1 LIG    0.0771
      2 H22        52.2240   55.7480   50.8010 H         1 LIG    0.1089
      3 H23        53.8510   55.6730   51.5570 H         1 LIG    0.1089
      4 H24        53.6190   55.1800   49.8500 H         1 LIG    0.1089
      5 N5         53.5810   57.2910   50.1700 N.4       1 LIG   -0.6674
      6 H21        54.6360   57.3980   50.0600 H         1 LIG    0.4448
      7 C21        53.1140   58.2790   51.2210 C.3       1 LIG    0.0771
      8 H25        52.0340   58.1690   51.3650 H         1 LIG    0.1089
      9 H26        53.3500   59.2920   50.8850 H         1 LIG    0.1089
     10 H27        53.6370   58.0670   52.1570 H         1 LIG    0.1089
     11 C19        52.9600   57.5720   48.8040 C.3       1 LIG    0.0738
     12 H19        53.2670   58.5840   48.5280 H         1 LIG    0.1077
     13 H20        53.4260   56.8750   48.1010 H         1 LIG    0.1077
     14 C18        51.4200   57.4600   48.6590 C.3       1 LIG    0.1124
     15 H17        50.9170   58.0510   49.4280 H         1 LIG    0.0912
     16 H18        51.0980   57.8270   47.6800 H         1 LIG    0.0912
     17 O2         51.0110   56.0810   48.7960 O.3       1 LIG   -0.3519
     18 C17        51.4260   55.0700   47.9520 C.ar      1 LIG    0.0421
     19 C22        51.4220   53.7730   48.4440 C.ar      1 LIG   -0.1410
     20 H28        51.0730   53.5770   49.4560 H         1 LIG    0.1380
     21 C23        51.8790   52.7170   47.6600 C.ar      1 LIG   -0.1015
     22 H29        51.9120   51.7400   48.1240 H         1 LIG    0.1595
     23 C16        51.8670   55.3040   46.6510 C.ar      1 LIG   -0.1410
     24 H16        51.8500   56.3030   46.2260 H         1 LIG    0.1380
     25 C15        52.3210   54.2440   45.8680 C.ar      1 LIG   -0.1015
     26 H15        52.6630   54.4660   44.8670 H         1 LIG    0.1595
     27 C12        52.3260   52.9250   46.3470 C.ar      1 LIG    0.0032
     28 C11        52.8730   51.8580   45.5120 C.ar      1 LIG   -0.0382
     29 C13        52.9160   50.4900   45.7450 C.ar      1 LIG   -0.0022
     30 C10        53.8090   49.9730   44.7440 C.ar      1 LIG   -0.3646
     31 C14        52.0660   49.7550   46.6610 C.ar      1 LIG   -0.0508
     32 C24        50.7020   50.0580   46.7400 C.ar      1 LIG   -0.1165
     33 H30        50.2830   50.8460   46.1200 H         1 LIG    0.1445
     34 C25        49.8650   49.3550   47.6050 C.ar      1 LIG   -0.1350
     35 H31        48.8090   49.6160   47.6780 H         1 LIG    0.1365
     36 C26        50.3780   48.3140   48.3740 C.ar      1 LIG   -0.1250
     37 H32        49.7200   47.7500   49.0310 H         1 LIG    0.1360
     38 C27        51.7310   47.9940   48.2940 C.ar      1 LIG   -0.1350
     39 H33        52.1250   47.1690   48.8830 H         1 LIG    0.1365
     40 C28        52.5730   48.7210   47.4520 C.ar      1 LIG   -0.1165
     41 H34        53.6300   48.4770   47.4160 H         1 LIG    0.1445
     42 N4         53.6390   52.1370   44.3880 N.ar      1 LIG   -0.3272
     43 H14        53.6930   53.0160   43.8890 H         1 LIG    0.3107
     44 C9         54.2210   51.0070   43.9590 C.ar      1 LIG    0.5158
     45 N3         55.0390   50.8500   42.9110 N.ar      1 LIG   -0.7500
     46 C8         55.4390   49.5800   42.6950 C.ar      1 LIG    0.6989
     47 H13        56.1170   49.4130   41.8630 H         1 LIG    0.0561
     48 N2         55.0610   48.4960   43.3860 N.ar      1 LIG   -0.7910
     49 C4         54.2090   48.7000   44.3910 C.ar      1 LIG    0.7432
     50 N1         53.7130   47.5950   44.9880 N.pl3     1 LIG   -0.8269
     51 H6         52.7860   47.7580   45.3860 H         1 LIG    0.4498
     52 C3         53.8250   46.2600   44.3910 C.3       1 LIG    0.2198
     53 H4         53.6680   46.3150   43.3110 H         1 LIG    0.0602
     54 H5         54.8350   45.8720   44.5560 H         1 LIG    0.0602
     55 C2         52.7950   45.2630   44.9830 C.3       1 LIG   -0.0717
     56 H3         52.9850   44.3090   44.4940 H         1 LIG    0.0657
     57 C1         52.9360   45.0080   46.4910 C.3       1 LIG   -0.0784
     58 H1         53.0940   45.9440   47.0250 H         1 LIG    0.0507
     59 H2         53.7730   44.3420   46.7020 H         1 LIG    0.0507
     60 C7         51.5910   44.3930   46.9240 C.3       1 LIG   -0.0774
     61 H11        51.6880   43.3110   47.0480 H         1 LIG    0.0447
     62 H12        51.2620   44.8160   47.8740 H         1 LIG    0.0447
     63 C6         50.5700   44.7080   45.8130 C.3       1 LIG   -0.1164
     64 H9         50.2370   43.7790   45.3490 H         1 LIG    0.0512
     65 H10        49.6850   45.2030   46.2230 H         1 LIG    0.0512
     66 C5         51.2950   45.5820   44.7760 C.3       1 LIG    0.1381
     67 H7         50.9690   45.3400   43.7600 H         1 LIG    0.0417
     68 O1         50.9850   46.9430   45.0740 O.3       1 LIG   -0.6118
     69 H8         50.0380   46.9800   45.3270 H         1 LIG    0.4080
@<TRIPOS>BOND
     1    1    2 1
     2    1    3 1
     3    1    4 1
     4    1    5 1
     5    5    6 1
     6    5    7 1
     7    5   11 1
     8    7    8 1
     9    7    9 1
    10    7   10 1
    11   11   12 1
    12   11   13 1
    13   11   14 1
    14   14   15 1
    15   14   16 1
    16   14   17 1
    17   17   18 1
    18   18   19 ar
    19   18   23 ar
    20   19   20 1
    21   19   21 ar
    22   21   22 1
    23   21   27 ar
    24   23   24 1
    25   23   25 ar
    26   25   26 1
    27   25   27 ar
    28   27   28 1
    29   28   29 ar
    30   28   42 ar
    31   29   30 ar
    32   29   31 1
    33   30   44 ar
    34   30   49 ar
    35   31   32 ar
    36   31   40 ar
    37   32   33 1
    38   32   34 ar
    39   34   35 1
    40   34   36 ar
    41   36   37 1
    42   36   38 ar
    43   38   39 1
    44   38   40 ar
    45   40   41 1
    46   42   43 1
    47   42   44 ar
    48   44   45 ar
    49   45   46 ar
    50   46   47 1
    51   46   48 ar
    52   48   49 ar
    53   49   50 1
    54   50   51 1
    55   50   52 1
    56   52   53 1
    57   52   54 1
    58   52   55 1
    59   55   56 1
    60   55   57 1
    61   55   66 1
    62   57   58 1
    63   57   59 1
    64   57   60 1
    65   60   61 1
    66   60   62 1
    67   60   63 1
    68   63   64 1
    69   63   65 1
    70   63   66 1
    71   66   67 1
    72   66   68 1
    73   68   69 1
@<TRIPOS>SUBSTRUCTURE
     1 LIG     1 RESIDUE           4 A     LIG     0 ROOT
