../datasets/input/ACK1/poses/ACK1_44/ligand.pdb
 OpenBabel02211915413D

 69 73  0  0  1  0  0  0  0  0999 V2000
   53.2990   55.8710   50.6330 C   0  0  0  0  0  0  0  0  0  0  0  0
   52.2240   55.7480   50.8010 H   0  0  0  0  0  0  0  0  0  0  0  0
   53.8510   55.6730   51.5570 H   0  0  0  0  0  0  0  0  0  0  0  0
   53.6190   55.1800   49.8500 H   0  0  0  0  0  0  0  0  0  0  0  0
   53.5810   57.2910   50.1700 N   0  3  0  0  0  0  0  0  0  0  0  0
   54.6360   57.3980   50.0600 H   0  0  0  0  0  0  0  0  0  0  0  0
   53.1140   58.2790   51.2210 C   0  0  0  0  0  0  0  0  0  0  0  0
   52.0340   58.1690   51.3650 H   0  0  0  0  0  0  0  0  0  0  0  0
   53.3500   59.2920   50.8850 H   0  0  0  0  0  0  0  0  0  0  0  0
   53.6370   58.0670   52.1570 H   0  0  0  0  0  0  0  0  0  0  0  0
   52.9600   57.5720   48.8040 C   0  0  0  0  0  0  0  0  0  0  0  0
   53.2670   58.5840   48.5280 H   0  0  0  0  0  0  0  0  0  0  0  0
   53.4260   56.8750   48.1010 H   0  0  0  0  0  0  0  0  0  0  0  0
   51.4200   57.4600   48.6590 C   0  0  0  0  0  0  0  0  0  0  0  0
   50.9170   58.0510   49.4280 H   0  0  0  0  0  0  0  0  0  0  0  0
   51.0980   57.8270   47.6800 H   0  0  0  0  0  0  0  0  0  0  0  0
   51.0110   56.0810   48.7960 O   0  0  0  0  0  0  0  0  0  0  0  0
   51.4260   55.0700   47.9520 C   0  0  0  0  0  0  0  0  0  0  0  0
   51.4220   53.7730   48.4440 C   0  0  0  0  0  0  0  0  0  0  0  0
   51.0730   53.5770   49.4560 H   0  0  0  0  0  0  0  0  0  0  0  0
   51.8790   52.7170   47.6600 C   0  0  0  0  0  0  0  0  0  0  0  0
   51.9120   51.7400   48.1240 H   0  0  0  0  0  0  0  0  0  0  0  0
   51.8670   55.3040   46.6510 C   0  0  0  0  0  0  0  0  0  0  0  0
   51.8500   56.3030   46.2260 H   0  0  0  0  0  0  0  0  0  0  0  0
   52.3210   54.2440   45.8680 C   0  0  0  0  0  0  0  0  0  0  0  0
   52.6630   54.4660   44.8670 H   0  0  0  0  0  0  0  0  0  0  0  0
   52.3260   52.9250   46.3470 C   0  0  0  0  0  0  0  0  0  0  0  0
   52.8730   51.8580   45.5120 C   0  0  2  0  0  0  0  0  0  0  0  0
   52.9160   50.4900   45.7450 C   0  0  2  0  0  0  0  0  0  0  0  0
   53.8090   49.9730   44.7440 C   0  0  0  0  0  0  0  0  0  0  0  0
   52.0660   49.7550   46.6610 C   0  0  0  0  0  0  0  0  0  0  0  0
   50.7020   50.0580   46.7400 C   0  0  0  0  0  0  0  0  0  0  0  0
   50.2830   50.8460   46.1200 H   0  0  0  0  0  0  0  0  0  0  0  0
   49.8650   49.3550   47.6050 C   0  0  0  0  0  0  0  0  0  0  0  0
   48.8090   49.6160   47.6780 H   0  0  0  0  0  0  0  0  0  0  0  0
   50.3780   48.3140   48.3740 C   0  0  0  0  0  0  0  0  0  0  0  0
   49.7200   47.7500   49.0310 H   0  0  0  0  0  0  0  0  0  0  0  0
   51.7310   47.9940   48.2940 C   0  0  0  0  0  0  0  0  0  0  0  0
   52.1250   47.1690   48.8830 H   0  0  0  0  0  0  0  0  0  0  0  0
   52.5730   48.7210   47.4520 C   0  0  0  0  0  0  0  0  0  0  0  0
   53.6300   48.4770   47.4160 H   0  0  0  0  0  0  0  0  0  0  0  0
   53.6390   52.1370   44.3880 N   0  3  0  0  0  0  0  0  0  0  0  0
   53.6930   53.0160   43.8890 H   0  0  0  0  0  0  0  0  0  0  0  0
   54.2210   51.0070   43.9590 C   0  0  0  0  0  0  0  0  0  0  0  0
   55.0390   50.8500   42.9110 N   0  0  0  0  0  0  0  0  0  0  0  0
   55.4390   49.5800   42.6950 C   0  0  0  0  0  0  0  0  0  0  0  0
   56.1170   49.4130   41.8630 H   0  0  0  0  0  0  0  0  0  0  0  0
   55.0610   48.4960   43.3860 N   0  0  0  0  0  0  0  0  0  0  0  0
   54.2090   48.7000   44.3910 C   0  0  0  0  0  0  0  0  0  0  0  0
   53.7130   47.5950   44.9880 N   0  0  0  0  0  0  0  0  0  0  0  0
   52.7860   47.7580   45.3860 H   0  0  0  0  0  0  0  0  0  0  0  0
   53.8250   46.2600   44.3910 C   0  0  0  0  0  0  0  0  0  0  0  0
   53.6680   46.3150   43.3110 H   0  0  0  0  0  0  0  0  0  0  0  0
   54.8350   45.8720   44.5560 H   0  0  0  0  0  0  0  0  0  0  0  0
   52.7950   45.2630   44.9830 C   0  0  1  0  0  0  0  0  0  0  0  0
   52.9850   44.3090   44.4940 H   0  0  0  0  0  0  0  0  0  0  0  0
   52.9360   45.0080   46.4910 C   0  0  0  0  0  0  0  0  0  0  0  0
   53.0940   45.9440   47.0250 H   0  0  0  0  0  0  0  0  0  0  0  0
   53.7730   44.3420   46.7020 H   0  0  0  0  0  0  0  0  0  0  0  0
   51.5910   44.3930   46.9240 C   0  0  0  0  0  0  0  0  0  0  0  0
   51.6880   43.3110   47.0480 H   0  0  0  0  0  0  0  0  0  0  0  0
   51.2620   44.8160   47.8740 H   0  0  0  0  0  0  0  0  0  0  0  0
   50.5700   44.7080   45.8130 C   0  0  0  0  0  0  0  0  0  0  0  0
   50.2370   43.7790   45.3490 H   0  0  0  0  0  0  0  0  0  0  0  0
   49.6850   45.2030   46.2230 H   0  0  0  0  0  0  0  0  0  0  0  0
   51.2950   45.5820   44.7760 C   0  0  1  0  0  0  0  0  0  0  0  0
   50.9690   45.3400   43.7600 H   0  0  0  0  0  0  0  0  0  0  0  0
   50.9850   46.9430   45.0740 O   0  0  0  0  0  0  0  0  0  0  0  0
   50.0380   46.9800   45.3270 H   0  0  0  0  0  0  0  0  0  0  0  0
  1  2  1  0  0  0  0
  1  3  1  0  0  0  0
  1  4  1  0  0  0  0
  1  5  1  0  0  0  0
  5  6  1  0  0  0  0
  5  7  1  0  0  0  0
  5 11  1  0  0  0  0
  7  8  1  0  0  0  0
  7  9  1  0  0  0  0
  7 10  1  0  0  0  0
 11 12  1  0  0  0  0
 11 13  1  0  0  0  0
 11 14  1  0  0  0  0
 14 15  1  0  0  0  0
 14 16  1  0  0  0  0
 14 17  1  0  0  0  0
 17 18  1  0  0  0  0
 18 19  2  0  0  0  0
 18 23  1  0  0  0  0
 19 20  1  0  0  0  0
 19 21  1  0  0  0  0
 21 22  1  0  0  0  0
 21 27  2  0  0  0  0
 23 24  1  0  0  0  0
 23 25  2  0  0  0  0
 25 26  1  0  0  0  0
 25 27  1  0  0  0  0
 28 27  1  1  0  0  0
 28 29  1  0  0  0  0
 28 42  1  0  0  0  0
 29 30  1  0  0  0  0
 29 31  1  6  0  0  0
 30 44  2  0  0  0  0
 30 49  1  0  0  0  0
 31 32  1  0  0  0  0
 31 40  2  0  0  0  0
 32 33  1  0  0  0  0
 32 34  2  0  0  0  0
 34 35  1  0  0  0  0
 34 36  1  0  0  0  0
 36 37  1  0  0  0  0
 36 38  2  0  0  0  0
 38 39  1  0  0  0  0
 38 40  1  0  0  0  0
 40 41  1  0  0  0  0
 42 43  1  0  0  0  0
 42 44  1  0  0  0  0
 44 45  1  0  0  0  0
 45 46  2  0  0  0  0
 46 47  1  0  0  0  0
 46 48  1  0  0  0  0
 48 49  2  0  0  0  0
 49 50  1  0  0  0  0
 50 51  1  0  0  0  0
 50 52  1  0  0  0  0
 52 53  1  0  0  0  0
 52 54  1  0  0  0  0
 52 55  1  0  0  0  0
 55 56  1  0  0  0  0
 55 57  1  0  0  0  0
 55 66  1  6  0  0  0
 57 58  1  0  0  0  0
 57 59  1  0  0  0  0
 57 60  1  0  0  0  0
 60 61  1  0  0  0  0
 60 62  1  0  0  0  0
 60 63  1  0  0  0  0
 63 64  1  0  0  0  0
 63 65  1  0  0  0  0
 63 66  1  0  0  0  0
 66 67  1  6  0  0  0
 66 68  1  0  0  0  0
 68 69  1  0  0  0  0
M  CHG  2   5   1  42   1
M  END
