@<TRIPOS>MOLECULE
ligand_6.pdb
50 54 1 0 0
SMALL
AMBER ff14SB


@<TRIPOS>ATOM
      1 C20        52.1560   48.5510   48.4150 C.ar      1 LIG   -0.1365
      2 H15        52.6080   47.8170   49.0730 H         1 LIG    0.1360
      3 C21        52.9690   49.3380   47.5810 C.ar      1 LIG   -0.1185
      4 H16        54.0460   49.2250   47.6280 H         1 LIG    0.1465
      5 C19        50.7820   48.7110   48.3770 C.ar      1 LIG   -0.1280
      6 H14        50.1440   48.1010   49.0240 H         1 LIG    0.1340
      7 C18        50.2030   49.6400   47.5180 C.ar      1 LIG   -0.1365
      8 H13        49.1230   49.7690   47.5050 H         1 LIG    0.1360
      9 C17        51.0060   50.3930   46.6620 C.ar      1 LIG   -0.1185
     10 H12        50.5510   51.0870   45.9640 H         1 LIG    0.1465
     11 C3         52.4020   50.2340   46.6820 C.ar      1 LIG   -0.0418
     12 C2         53.2290   50.9310   45.7360 C.ar      1 LIG   -0.0662
     13 C1         54.0440   50.3590   44.7040 C.ar      1 LIG   -0.2603
     14 C6         54.3610   49.0500   44.3900 C.ar      1 LIG    0.2516
     15 N1         53.9340   48.0210   45.1650 N.pl3     1 LIG   -0.7426
     16 H1         53.3890   48.3570   45.9520 H         1 LIG    0.4248
     17 C7         53.3860   46.7820   44.5980 C.3       1 LIG    0.1788
     18 C8         52.1720   46.3410   45.4470 C.3       1 LIG    0.1131
     19 H2         51.6410   47.2170   45.8320 H         1 LIG    0.0677
     20 O2         51.2200   45.5700   44.6900 O.3       1 LIG   -0.4196
     21 C24        50.3510   44.9000   45.6390 C.3       1 LIG    0.1254
     22 C23        51.2100   44.6870   46.8980 C.3       1 LIG   -0.1064
     23 C22        52.5340   45.3990   46.6010 C.3       1 LIG   -0.1084
     24 H17        53.2780   44.6680   46.2750 H         1 LIG    0.0582
     25 H22        52.9180   45.9360   47.4690 H         1 LIG    0.0582
     26 H18        50.7170   45.1320   47.7660 H         1 LIG    0.0547
     27 H19        51.3720   43.6240   47.0960 H         1 LIG    0.0547
     28 H20        49.5010   45.5500   45.8690 H         1 LIG    0.0487
     29 H21        50.0020   43.9500   45.2260 H         1 LIG    0.0487
     30 H3         54.1490   45.9980   44.5870 H         1 LIG    0.0647
     31 H4         53.0520   46.9450   43.5740 H         1 LIG    0.0647
     32 C9         55.1160   48.8320   43.2420 C.ar      1 LIG   -0.3373
     33 H5         55.4090   47.8300   42.9540 H         1 LIG    0.1480
     34 C10        55.4720   49.9190   42.4420 C.ar      1 LIG    0.4452
     35 H6         56.0390   49.7680   41.5280 H         1 LIG    0.0261
     36 N2         55.1230   51.1970   42.7210 N.ar      1 LIG   -0.6740
     37 C11        54.4250   51.3750   43.8510 C.ar      1 LIG    0.5527
     38 O1         53.9320   52.5910   44.2590 O.2       1 LIG   -0.2194
     39 C4         53.1820   52.2890   45.3840 C.ar      1 LIG    0.0608
     40 C5         52.5800   53.3730   46.1420 C.ar      1 LIG   -0.0448
     41 C12        52.5940   54.6510   45.5860 C.ar      1 LIG   -0.1010
     42 H7         53.0190   54.8170   44.6030 H         1 LIG    0.1490
     43 C13        52.0520   55.7580   46.2720 C.ar      1 LIG   -0.1360
     44 H8         52.0590   56.7340   45.8050 H         1 LIG    0.1350
     45 C14        51.5080   55.5830   47.5290 C.ar      1 LIG   -0.1170
     46 H9         51.0890   56.4360   48.0690 H         1 LIG    0.1330
     47 C15        51.5060   54.3240   48.1170 C.ar      1 LIG   -0.1360
     48 H10        51.1040   54.1830   49.1200 H         1 LIG    0.1350
     49 C16        52.0390   53.2330   47.4400 C.ar      1 LIG   -0.1010
     50 H11        52.0610   52.2910   47.9660 H         1 LIG    0.1490
@<TRIPOS>BOND
     1    1    2 1
     2    1    3 ar
     3    1    5 ar
     4    3    4 1
     5    3   11 ar
     6    5    6 1
     7    5    7 ar
     8    7    8 1
     9    7    9 ar
    10    9   10 1
    11    9   11 ar
    12   11   12 1
    13   12   13 ar
    14   12   39 ar
    15   13   14 ar
    16   13   37 ar
    17   14   15 1
    18   14   32 ar
    19   15   16 1
    20   15   17 1
    21   17   18 1
    22   17   30 1
    23   17   31 1
    24   18   19 1
    25   18   20 1
    26   18   23 1
    27   20   21 1
    28   21   22 1
    29   21   28 1
    30   21   29 1
    31   22   23 1
    32   22   26 1
    33   22   27 1
    34   23   24 1
    35   23   25 1
    36   32   33 1
    37   32   34 ar
    38   34   35 1
    39   34   36 ar
    40   36   37 ar
    41   37   38 ar
    42   38   39 ar
    43   39   40 1
    44   40   41 ar
    45   40   49 ar
    46   41   42 1
    47   41   43 ar
    48   43   44 1
    49   43   45 ar
    50   45   46 1
    51   45   47 ar
    52   47   48 1
    53   47   49 ar
    54   49   50 1
@<TRIPOS>SUBSTRUCTURE
     1 LIG     1 RESIDUE           4 A     LIG     0 ROOT
