../datasets/input/ACK1/poses/ACK1_6/ligand.pdb
 OpenBabel02211915413D

 50 54  0  0  1  0  0  0  0  0999 V2000
   52.1560   48.5510   48.4150 C   0  0  0  0  0  0  0  0  0  0  0  0
   52.6080   47.8170   49.0730 H   0  0  0  0  0  0  0  0  0  0  0  0
   52.9690   49.3380   47.5810 C   0  0  0  0  0  0  0  0  0  0  0  0
   54.0460   49.2250   47.6280 H   0  0  0  0  0  0  0  0  0  0  0  0
   50.7820   48.7110   48.3770 C   0  0  0  0  0  0  0  0  0  0  0  0
   50.1440   48.1010   49.0240 H   0  0  0  0  0  0  0  0  0  0  0  0
   50.2030   49.6400   47.5180 C   0  0  0  0  0  0  0  0  0  0  0  0
   49.1230   49.7690   47.5050 H   0  0  0  0  0  0  0  0  0  0  0  0
   51.0060   50.3930   46.6620 C   0  0  0  0  0  0  0  0  0  0  0  0
   50.5510   51.0870   45.9640 H   0  0  0  0  0  0  0  0  0  0  0  0
   52.4020   50.2340   46.6820 C   0  0  0  0  0  0  0  0  0  0  0  0
   53.2290   50.9310   45.7360 C   0  0  1  0  0  0  0  0  0  0  0  0
   54.0440   50.3590   44.7040 C   0  0  0  0  0  0  0  0  0  0  0  0
   54.3610   49.0500   44.3900 C   0  0  0  0  0  0  0  0  0  0  0  0
   53.9340   48.0210   45.1650 N   0  0  0  0  0  0  0  0  0  0  0  0
   53.3890   48.3570   45.9520 H   0  0  0  0  0  0  0  0  0  0  0  0
   53.3860   46.7820   44.5980 C   0  0  0  0  0  0  0  0  0  0  0  0
   52.1720   46.3410   45.4470 C   0  0  1  0  0  0  0  0  0  0  0  0
   51.6410   47.2170   45.8320 H   0  0  0  0  0  0  0  0  0  0  0  0
   51.2200   45.5700   44.6900 O   0  0  0  0  0  0  0  0  0  0  0  0
   50.3510   44.9000   45.6390 C   0  0  0  0  0  0  0  0  0  0  0  0
   51.2100   44.6870   46.8980 C   0  0  0  0  0  0  0  0  0  0  0  0
   52.5340   45.3990   46.6010 C   0  0  0  0  0  0  0  0  0  0  0  0
   53.2780   44.6680   46.2750 H   0  0  0  0  0  0  0  0  0  0  0  0
   52.9180   45.9360   47.4690 H   0  0  0  0  0  0  0  0  0  0  0  0
   50.7170   45.1320   47.7660 H   0  0  0  0  0  0  0  0  0  0  0  0
   51.3720   43.6240   47.0960 H   0  0  0  0  0  0  0  0  0  0  0  0
   49.5010   45.5500   45.8690 H   0  0  0  0  0  0  0  0  0  0  0  0
   50.0020   43.9500   45.2260 H   0  0  0  0  0  0  0  0  0  0  0  0
   54.1490   45.9980   44.5870 H   0  0  0  0  0  0  0  0  0  0  0  0
   53.0520   46.9450   43.5740 H   0  0  0  0  0  0  0  0  0  0  0  0
   55.1160   48.8320   43.2420 C   0  0  0  0  0  0  0  0  0  0  0  0
   55.4090   47.8300   42.9540 H   0  0  0  0  0  0  0  0  0  0  0  0
   55.4720   49.9190   42.4420 C   0  0  0  0  0  0  0  0  0  0  0  0
   56.0390   49.7680   41.5280 H   0  0  0  0  0  0  0  0  0  0  0  0
   55.1230   51.1970   42.7210 N   0  0  0  0  0  0  0  0  0  0  0  0
   54.4250   51.3750   43.8510 C   0  0  0  0  0  0  0  0  0  0  0  0
   53.9320   52.5910   44.2590 O   0  0  0  0  0  0  0  0  0  0  0  0
   53.1820   52.2890   45.3840 C   0  0  2  0  0  0  0  0  0  0  0  0
   52.5800   53.3730   46.1420 C   0  0  0  0  0  0  0  0  0  0  0  0
   52.5940   54.6510   45.5860 C   0  0  0  0  0  0  0  0  0  0  0  0
   53.0190   54.8170   44.6030 H   0  0  0  0  0  0  0  0  0  0  0  0
   52.0520   55.7580   46.2720 C   0  0  0  0  0  0  0  0  0  0  0  0
   52.0590   56.7340   45.8050 H   0  0  0  0  0  0  0  0  0  0  0  0
   51.5080   55.5830   47.5290 C   0  0  0  0  0  0  0  0  0  0  0  0
   51.0890   56.4360   48.0690 H   0  0  0  0  0  0  0  0  0  0  0  0
   51.5060   54.3240   48.1170 C   0  0  0  0  0  0  0  0  0  0  0  0
   51.1040   54.1830   49.1200 H   0  0  0  0  0  0  0  0  0  0  0  0
   52.0390   53.2330   47.4400 C   0  0  0  0  0  0  0  0  0  0  0  0
   52.0610   52.2910   47.9660 H   0  0  0  0  0  0  0  0  0  0  0  0
  1  2  1  0  0  0  0
  1  3  2  0  0  0  0
  1  5  1  0  0  0  0
  3  4  1  0  0  0  0
  3 11  1  0  0  0  0
  5  6  1  0  0  0  0
  5  7  2  0  0  0  0
  7  8  1  0  0  0  0
  7  9  1  0  0  0  0
  9 10  1  0  0  0  0
  9 11  2  0  0  0  0
 12 11  1  6  0  0  0
 12 13  1  0  0  0  0
 12 39  1  0  0  0  0
 13 14  2  0  0  0  0
 13 37  1  0  0  0  0
 14 15  1  0  0  0  0
 14 32  1  0  0  0  0
 15 16  1  0  0  0  0
 15 17  1  0  0  0  0
 17 18  1  0  0  0  0
 17 30  1  0  0  0  0
 17 31  1  0  0  0  0
 18 19  1  1  0  0  0
 18 20  1  0  0  0  0
 18 23  1  0  0  0  0
 20 21  1  0  0  0  0
 21 22  1  0  0  0  0
 21 28  1  0  0  0  0
 21 29  1  0  0  0  0
 22 23  1  0  0  0  0
 22 26  1  0  0  0  0
 22 27  1  0  0  0  0
 23 24  1  0  0  0  0
 23 25  1  0  0  0  0
 32 33  1  0  0  0  0
 32 34  2  0  0  0  0
 34 35  1  0  0  0  0
 34 36  1  0  0  0  0
 36 37  2  0  0  0  0
 37 38  1  0  0  0  0
 38 39  1  0  0  0  0
 39 40  1  1  0  0  0
 40 41  2  0  0  0  0
 40 49  1  0  0  0  0
 41 42  1  0  0  0  0
 41 43  1  0  0  0  0
 43 44  1  0  0  0  0
 43 45  2  0  0  0  0
 45 46  1  0  0  0  0
 45 47  1  0  0  0  0
 47 48  1  0  0  0  0
 47 49  2  0  0  0  0
 49 50  1  0  0  0  0
M  END
